mol_ID_1
                    3D
 Schrodinger Suite 2020-4.
 15 15  0  0  1  0            999 V2000
   -0.0187   -0.0289    0.0000 C   0  0  0  0  0  0
    1.4829    0.0411    0.0000 C   0  0  0  0  0  0
    2.1757   -1.0854    0.0000 N   0  0  0  0  0  0
    3.5216   -0.7080    0.0000 O   0  0  0  0  0  0
    3.5895    0.6477    0.0000 C   0  0  0  0  0  0
    4.9606    1.2381    0.0000 C   0  0  0  0  0  0
    2.3314    1.1870    0.0000 C   0  0  0  0  0  0
    1.9690    2.5565    0.0000 C   0  0  0  0  0  0
    1.6732    3.6748    0.0000 N   0  0  0  0  0  0
   -0.4682    0.9640   -0.0000 H   0  0  0  0  0  0
   -0.3863   -0.5562    0.8805 H   0  0  0  0  0  0
   -0.3863   -0.5562   -0.8805 H   0  0  0  0  0  0
    4.9234    2.3275    0.0000 H   0  0  0  0  0  0
    5.5165    0.9205   -0.8822 H   0  0  0  0  0  0
    5.5165    0.9205    0.8822 H   0  0  0  0  0  0
  1  2  1  0  0  0
  1 10  1  0  0  0
  1 11  1  0  0  0
  1 12  1  0  0  0
  2  7  1  0  0  0
  2  3  2  0  0  0
  3  4  1  0  0  0
  4  5  1  0  0  0
  5  6  1  0  0  0
  5  7  2  0  0  0
  6 13  1  0  0  0
  6 14  1  0  0  0
  6 15  1  0  0  0
  7  8  1  0  0  0
  8  9  3  0  0  0
M  END
> <s_m_entry_id>
867

> <s_m_entry_name>
Spot_Xplore.std.1

> <s_m_Source_Path>
/Volumes/cluster/ddu/2448959/Work/2023/01_Fragment_screening_lib/1_Library_Construction/Work/SpotX/Ph4_Hypo_JC2

> <s_m_Source_File>
SpotX.maegz

> <i_m_Source_File_Index>
1

> <s_m_job_name>
ligprep_SpotXplore

> <i_lp_mmshare_version>
52144

> <s_epik_input>
W0NIM11jMW5vYyhbQ0gzXSljMUMjTg==

> <s_epik_cmdline>
J2VwaWtfcHl0aG9uJywgJy1waHQnLCAnMS4wJywgJy1waCcsICc3LjAnLCAnLXRuJywgJzgnLCAnLW1hJywgJzIwMCcsICctaW1hZScsICc8aW5maWxlLm1hZT4nLCAnLW9tYWUnLCAnPG91dGZpbGUubWFlPic=

> <r_lp_tautomer_probability>
1

> <r_epik_Ionization_Penalty>
  0.0000

> <r_epik_Ionization_Penalty_Charging>
  0.0000

> <r_epik_Ionization_Penalty_Neutral>
  0.0000

> <r_epik_State_Penalty>
  0.0000

> <r_epik_Charging_Adjusted_Penalty>
0

> <i_epik_Tot_Q>
0

> <i_epik_Tot_abs_Q>
0

> <i_f3d_flags>
0

> <s_lp_Force_Field>
OPLS_2005

> <r_lp_Energy>
-1.62758

> <b_lp_Chiralities_Consistent>
1

> <s_lp_Variant>
mol_ID_1-1

> <s_m_subgroup_title>
ligprep_SpotXplore-out1

> <s_m_subgroupid>
ligprep_SpotXplore-out1

> <b_m_subgroup_collapsed>
0

$$$$
mol_ID_2
                    3D
 Schrodinger Suite 2020-4.
 11 11  0  0  1  0            999 V2000
   -1.9069    0.7337    6.4182 Br  0  0  0  0  0  0
   -1.0388    0.3778    4.7629 C   0  0  0  0  0  0
   -0.1692    1.3502    4.2267 C   0  0  0  0  0  0
    0.4716    1.0835    3.0014 C   0  0  0  0  0  0
    0.2197   -0.1435    2.3588 C   0  0  0  0  0  0
   -0.6653   -1.0505    2.9742 C   0  0  0  0  0  0
   -1.2830   -0.8010    4.1488 N   0  0  0  0  0  0
    0.0024    2.2819    4.7454 H   0  0  0  0  0  0
    1.1435    1.8064    2.5631 H   0  0  0  0  0  0
    0.6925   -0.3839    1.4179 H   0  0  0  0  0  0
   -0.8833   -2.0015    2.5114 H   0  0  0  0  0  0
  1  2  1  0  0  0
  2  7  1  0  0  0
  2  3  2  0  0  0
  3  4  1  0  0  0
  3  8  1  0  0  0
  4  5  2  0  0  0
  4  9  1  0  0  0
  5  6  1  0  0  0
  5 10  1  0  0  0
  6  7  2  0  0  0
  6 11  1  0  0  0
M  END
> <s_m_entry_id>
868

> <s_m_entry_name>
Spot_Xplore.std.2

> <s_m_Source_Path>
/Volumes/cluster/ddu/2448959/Work/2023/01_Fragment_screening_lib/1_Library_Construction/Work/SpotX/Ph4_Hypo_JC2

> <s_m_Source_File>
SpotX.maegz

> <i_m_Source_File_Index>
2

> <s_m_job_name>
ligprep_SpotXplore

> <i_lp_mmshare_version>
52144

> <s_epik_input>
QnJjMVtjSF1bY0hdW2NIXVtjSF1uMQ==

> <s_epik_cmdline>
J2VwaWtfcHl0aG9uJywgJy1waHQnLCAnMS4wJywgJy1waCcsICc3LjAnLCAnLXRuJywgJzgnLCAnLW1hJywgJzIwMCcsICctaW1hZScsICc8aW5maWxlLm1hZT4nLCAnLW9tYWUnLCAnPG91dGZpbGUubWFlPic=

> <r_lp_tautomer_probability>
1

> <r_epik_Ionization_Penalty>
  0.0000

> <r_epik_Ionization_Penalty_Charging>
  0.0000

> <r_epik_Ionization_Penalty_Neutral>
  0.0000

> <r_epik_State_Penalty>
  0.0000

> <r_epik_Charging_Adjusted_Penalty>
0

> <i_epik_Tot_Q>
0

> <i_epik_Tot_abs_Q>
0

> <i_f3d_flags>
0

> <s_lp_Force_Field>
OPLS_2005

> <r_lp_Energy>
1.574632

> <b_lp_Chiralities_Consistent>
1

> <s_lp_Variant>
mol_ID_2-1

> <s_m_subgroup_title>
ligprep_SpotXplore-out1

> <s_m_subgroupid>
ligprep_SpotXplore-out1

> <b_m_subgroup_collapsed>
0

$$$$
mol_ID_3
                    3D
 Schrodinger Suite 2020-4.
 15 15  0  0  1  0            999 V2000
   -0.7857    1.1228    0.0000 C   0  0  0  0  0  0
    0.0178    0.0459    0.0000 C   0  0  0  0  0  0
    1.4905    0.0561    0.0000 C   0  0  0  0  0  0
    2.2542    1.2463    0.0000 C   0  0  0  0  0  0
    3.6599    1.1606    0.0000 C   0  0  0  0  0  0
    4.2543   -0.1157    0.0000 C   0  0  0  0  0  0
    3.5424   -1.2618    0.0000 N   0  0  0  0  0  0
    2.1951   -1.1684    0.0000 C   0  0  0  0  0  0
   -0.4034    2.1321   -0.0000 H   0  0  0  0  0  0
   -1.8590    1.0020    0.0000 H   0  0  0  0  0  0
   -0.4490   -0.9287    0.0000 H   0  0  0  0  0  0
    1.7854    2.2185    0.0000 H   0  0  0  0  0  0
    4.2681    2.0530    0.0000 H   0  0  0  0  0  0
    5.3294   -0.2186    0.0000 H   0  0  0  0  0  0
    1.6614   -2.1077   -0.0000 H   0  0  0  0  0  0
  1  2  2  0  0  0
  1  9  1  0  0  0
  1 10  1  0  0  0
  2  3  1  0  0  0
  2 11  1  0  0  0
  3  8  1  0  0  0
  3  4  2  0  0  0
  4  5  1  0  0  0
  4 12  1  0  0  0
  5  6  2  0  0  0
  5 13  1  0  0  0
  6  7  1  0  0  0
  6 14  1  0  0  0
  7  8  2  0  0  0
  8 15  1  0  0  0
M  END
> <s_m_entry_id>
869

> <s_m_entry_name>
Spot_Xplore.std.3

> <s_m_Source_Path>
/Volumes/cluster/ddu/2448959/Work/2023/01_Fragment_screening_lib/1_Library_Construction/Work/SpotX/Ph4_Hypo_JC2

> <s_m_Source_File>
SpotX.maegz

> <i_m_Source_File_Index>
3

> <s_m_job_name>
ligprep_SpotXplore

> <i_lp_mmshare_version>
52144

> <s_epik_input>
W0NIMl09W0NIXWMxW2NIXVtjSF1bY0hdbltjSF0x

> <s_epik_cmdline>
J2VwaWtfcHl0aG9uJywgJy1waHQnLCAnMS4wJywgJy1waCcsICc3LjAnLCAnLXRuJywgJzgnLCAnLW1hJywgJzIwMCcsICctaW1hZScsICc8aW5maWxlLm1hZT4nLCAnLW9tYWUnLCAnPG91dGZpbGUubWFlPic=

> <r_epik_Ionization_Penalty>
  0.0031

> <r_epik_Ionization_Penalty_Charging>
  0.0000

> <r_epik_Ionization_Penalty_Neutral>
  0.0031

> <r_epik_State_Penalty>
  0.0022

> <r_epik_Charging_Adjusted_Penalty>
0.00215052195912983

> <i_epik_Tot_Q>
0

> <i_epik_Tot_abs_Q>
0

> <i_f3d_flags>
0

> <s_lp_Force_Field>
OPLS_2005

> <r_lp_Energy>
5.107933

> <b_lp_Chiralities_Consistent>
1

> <s_lp_Variant>
mol_ID_3-1

> <s_m_subgroup_title>
ligprep_SpotXplore-out1

> <s_m_subgroupid>
ligprep_SpotXplore-out1

> <b_m_subgroup_collapsed>
0

$$$$
mol_ID_4
                    3D
 Schrodinger Suite 2020-4.
 11 11  0  0  1  0            999 V2000
   -0.2929    2.1811   -6.3310 Cl  0  0  0  0  0  0
   -0.2232    1.3613   -4.8149 C   0  0  0  0  0  0
    0.5928    1.8881   -3.7921 C   0  0  0  0  0  0
    0.6472    1.2162   -2.5557 C   0  0  0  0  0  0
   -0.1148    0.0445   -2.3876 C   0  0  0  0  0  0
   -0.8993   -0.4024   -3.4690 C   0  0  0  0  0  0
   -0.9561    0.2369   -4.6573 N   0  0  0  0  0  0
    1.1655    2.7895   -3.9529 H   0  0  0  0  0  0
    1.2621    1.5930   -1.7516 H   0  0  0  0  0  0
   -0.0989   -0.4981   -1.4539 H   0  0  0  0  0  0
   -1.4970   -1.2971   -3.3775 H   0  0  0  0  0  0
  1  2  1  0  0  0
  2  7  1  0  0  0
  2  3  2  0  0  0
  3  4  1  0  0  0
  3  8  1  0  0  0
  4  5  2  0  0  0
  4  9  1  0  0  0
  5  6  1  0  0  0
  5 10  1  0  0  0
  6  7  2  0  0  0
  6 11  1  0  0  0
M  END
> <s_m_entry_id>
870

> <s_m_entry_name>
Spot_Xplore.std.4

> <s_m_Source_Path>
/Volumes/cluster/ddu/2448959/Work/2023/01_Fragment_screening_lib/1_Library_Construction/Work/SpotX/Ph4_Hypo_JC2

> <s_m_Source_File>
SpotX.maegz

> <i_m_Source_File_Index>
4

> <s_m_job_name>
ligprep_SpotXplore

> <i_lp_mmshare_version>
52144

> <s_epik_input>
Q2xjMVtjSF1bY0hdW2NIXVtjSF1uMQ==

> <s_epik_cmdline>
J2VwaWtfcHl0aG9uJywgJy1waHQnLCAnMS4wJywgJy1waCcsICc3LjAnLCAnLXRuJywgJzgnLCAnLW1hJywgJzIwMCcsICctaW1hZScsICc8aW5maWxlLm1hZT4nLCAnLW9tYWUnLCAnPG91dGZpbGUubWFlPic=

> <r_lp_tautomer_probability>
1

> <r_epik_Ionization_Penalty>
  0.0000

> <r_epik_Ionization_Penalty_Charging>
  0.0000

> <r_epik_Ionization_Penalty_Neutral>
  0.0000

> <r_epik_State_Penalty>
  0.0000

> <r_epik_Charging_Adjusted_Penalty>
0

> <i_epik_Tot_Q>
0

> <i_epik_Tot_abs_Q>
0

> <i_f3d_flags>
0

> <s_lp_Force_Field>
OPLS_2005

> <r_lp_Energy>
1.694279

> <b_lp_Chiralities_Consistent>
1

> <s_lp_Variant>
mol_ID_4-1

> <s_m_subgroup_title>
ligprep_SpotXplore-out1

> <s_m_subgroupid>
ligprep_SpotXplore-out1

> <b_m_subgroup_collapsed>
0

$$$$
mol_ID_5
                    3D
 Schrodinger Suite 2020-4.
 12 12  0  0  1  0            999 V2000
   -1.1388    0.0018   -0.0000 N   0  0  0  0  0  0
    0.0183    0.0051    0.0000 C   0  0  0  0  0  0
    1.4714    0.0096    0.0000 C   0  0  0  0  0  0
    2.1897    1.2227    0.0000 C   0  0  0  0  0  0
    3.5977    1.1756    0.0000 C   0  0  0  0  0  0
    4.2271   -0.0857    0.0000 C   0  0  0  0  0  0
    3.5480   -1.2533    0.0000 N   0  0  0  0  0  0
    2.1979   -1.1999    0.0000 C   0  0  0  0  0  0
    1.6765    2.1739    0.0000 H   0  0  0  0  0  0
    4.1811    2.0846    0.0000 H   0  0  0  0  0  0
    5.3048   -0.1585    0.0000 H   0  0  0  0  0  0
    1.6875   -2.1523   -0.0000 H   0  0  0  0  0  0
  1  2  3  0  0  0
  2  3  1  0  0  0
  3  8  1  0  0  0
  3  4  2  0  0  0
  4  5  1  0  0  0
  4  9  1  0  0  0
  5  6  2  0  0  0
  5 10  1  0  0  0
  6  7  1  0  0  0
  6 11  1  0  0  0
  7  8  2  0  0  0
  8 12  1  0  0  0
M  END
> <s_m_entry_id>
871

> <s_m_entry_name>
Spot_Xplore.std.5

> <s_m_Source_Path>
/Volumes/cluster/ddu/2448959/Work/2023/01_Fragment_screening_lib/1_Library_Construction/Work/SpotX/Ph4_Hypo_JC2

> <s_m_Source_File>
SpotX.maegz

> <i_m_Source_File_Index>
5

> <s_m_job_name>
ligprep_SpotXplore

> <i_lp_mmshare_version>
52144

> <s_epik_input>
TiNDYzFbY0hdW2NIXVtjSF1uW2NIXTE=

> <s_epik_cmdline>
J2VwaWtfcHl0aG9uJywgJy1waHQnLCAnMS4wJywgJy1waCcsICc3LjAnLCAnLXRuJywgJzgnLCAnLW1hJywgJzIwMCcsICctaW1hZScsICc8aW5maWxlLm1hZT4nLCAnLW9tYWUnLCAnPG91dGZpbGUubWFlPic=

> <r_lp_tautomer_probability>
1

> <r_epik_Ionization_Penalty>
  0.0000

> <r_epik_Ionization_Penalty_Charging>
  0.0000

> <r_epik_Ionization_Penalty_Neutral>
  0.0000

> <r_epik_State_Penalty>
  0.0000

> <r_epik_Charging_Adjusted_Penalty>
0

> <i_epik_Tot_Q>
0

> <i_epik_Tot_abs_Q>
0

> <i_f3d_flags>
0

> <s_lp_Force_Field>
OPLS_2005

> <r_lp_Energy>
2.96515

> <b_lp_Chiralities_Consistent>
1

> <s_lp_Variant>
mol_ID_5-1

> <s_m_subgroup_title>
ligprep_SpotXplore-out1

> <s_m_subgroupid>
ligprep_SpotXplore-out1

> <b_m_subgroup_collapsed>
0

$$$$
mol_ID_6
                    3D
 Schrodinger Suite 2020-4.
 10 10  0  0  1  0            999 V2000
    1.5617   -8.1146    1.8124 Cl  0  0  0  0  0  0
    0.0389   -8.8862    1.5629 C   0  0  0  0  0  0
   -1.0480   -8.2088    0.9738 C   0  0  0  0  0  0
   -2.2393   -8.8165    0.7801 N   0  0  0  0  0  0
   -2.3369  -10.0898    1.1737 C   0  0  0  0  0  0
   -1.3776  -10.8277    1.7405 N   0  0  0  0  0  0
   -0.1834  -10.2268    1.9375 C   0  0  0  0  0  0
   -0.9633   -7.1796    0.6576 H   0  0  0  0  0  0
   -3.2900  -10.5728    1.0176 H   0  0  0  0  0  0
    0.5957  -10.8184    2.3953 H   0  0  0  0  0  0
  1  2  1  0  0  0
  2  7  1  0  0  0
  2  3  2  0  0  0
  3  4  1  0  0  0
  3  8  1  0  0  0
  4  5  2  0  0  0
  5  6  1  0  0  0
  5  9  1  0  0  0
  6  7  2  0  0  0
  7 10  1  0  0  0
M  END
> <s_m_entry_id>
872

> <s_m_entry_name>
Spot_Xplore.std.6

> <s_m_Source_Path>
/Volumes/cluster/ddu/2448959/Work/2023/01_Fragment_screening_lib/1_Library_Construction/Work/SpotX/Ph4_Hypo_JC2

> <s_m_Source_File>
SpotX.maegz

> <i_m_Source_File_Index>
6

> <s_m_job_name>
ligprep_SpotXplore

> <i_lp_mmshare_version>
52144

> <s_epik_input>
Q2xjMVtjSF1uW2NIXW5bY0hdMQ==

> <s_epik_cmdline>
J2VwaWtfcHl0aG9uJywgJy1waHQnLCAnMS4wJywgJy1waCcsICc3LjAnLCAnLXRuJywgJzgnLCAnLW1hJywgJzIwMCcsICctaW1hZScsICc8aW5maWxlLm1hZT4nLCAnLW9tYWUnLCAnPG91dGZpbGUubWFlPic=

> <r_lp_tautomer_probability>
1

> <r_epik_Ionization_Penalty>
  0.0000

> <r_epik_Ionization_Penalty_Charging>
  0.0000

> <r_epik_Ionization_Penalty_Neutral>
  0.0000

> <r_epik_State_Penalty>
  0.0000

> <r_epik_Charging_Adjusted_Penalty>
0

> <i_epik_Tot_Q>
0

> <i_epik_Tot_abs_Q>
0

> <i_f3d_flags>
0

> <s_lp_Force_Field>
OPLS_2005

> <r_lp_Energy>
-0.46453

> <b_lp_Chiralities_Consistent>
1

> <s_lp_Variant>
mol_ID_6-1

> <s_epik_Chemistry_Notes>
This compound contains an electron-poor aromatic ring that is susceptible to covalent hydrolysis at low pH, typically resulting in measured values for nitrogen ring protonation that are around two units higher than predicted values.

> <s_m_subgroup_title>
ligprep_SpotXplore-out1

> <s_m_subgroupid>
ligprep_SpotXplore-out1

> <b_m_subgroup_collapsed>
0

$$$$
mol_ID_7
                    3D
 Schrodinger Suite 2020-4.
 12 12  0  0  1  0            999 V2000
   -1.1548    0.0028    0.0002 C   0  0  0  0  0  0
    0.0666    0.0003   -0.0000 C   0  0  0  0  0  0
    1.5052    0.0001   -0.0000 C   0  0  0  0  0  0
    2.1073    1.1934   -0.0000 N   0  0  0  0  0  0
    3.4583    1.1968    0.0000 C   0  0  0  0  0  0
    4.2027   -0.0000    0.0000 C   0  0  0  0  0  0
    3.4581   -1.1967    0.0000 C   0  0  0  0  0  0
    2.1072   -1.1932   -0.0000 N   0  0  0  0  0  0
   -2.2215    0.0076    0.0017 H   0  0  0  0  0  0
    3.9479    2.1593    0.0000 H   0  0  0  0  0  0
    5.2826   -0.0001    0.0000 H   0  0  0  0  0  0
    3.9477   -2.1593    0.0000 H   0  0  0  0  0  0
  1  2  3  0  0  0
  1  9  1  0  0  0
  2  3  1  0  0  0
  3  8  1  0  0  0
  3  4  2  0  0  0
  4  5  1  0  0  0
  5  6  2  0  0  0
  5 10  1  0  0  0
  6  7  1  0  0  0
  6 11  1  0  0  0
  7  8  2  0  0  0
  7 12  1  0  0  0
M  END
> <s_m_entry_id>
873

> <s_m_entry_name>
Spot_Xplore.std.7

> <s_m_Source_Path>
/Volumes/cluster/ddu/2448959/Work/2023/01_Fragment_screening_lib/1_Library_Construction/Work/SpotX/Ph4_Hypo_JC2

> <s_m_Source_File>
SpotX.maegz

> <i_m_Source_File_Index>
7

> <s_m_job_name>
ligprep_SpotXplore

> <i_lp_mmshare_version>
52144

> <s_epik_input>
W0NIXSNDYzFuW2NIXVtjSF1bY0hdbjE=

> <s_epik_cmdline>
J2VwaWtfcHl0aG9uJywgJy1waHQnLCAnMS4wJywgJy1waCcsICc3LjAnLCAnLXRuJywgJzgnLCAnLW1hJywgJzIwMCcsICctaW1hZScsICc8aW5maWxlLm1hZT4nLCAnLW9tYWUnLCAnPG91dGZpbGUubWFlPic=

> <r_lp_tautomer_probability>
1

> <r_epik_Ionization_Penalty>
  0.0000

> <r_epik_Ionization_Penalty_Charging>
  0.0000

> <r_epik_Ionization_Penalty_Neutral>
  0.0000

> <r_epik_State_Penalty>
  0.0000

> <r_epik_Charging_Adjusted_Penalty>
0

> <i_epik_Tot_Q>
0

> <i_epik_Tot_abs_Q>
0

> <i_f3d_flags>
0

> <s_lp_Force_Field>
OPLS_2005

> <r_lp_Energy>
-3.070029

> <b_lp_Chiralities_Consistent>
1

> <s_lp_Variant>
mol_ID_7-1

> <s_epik_Chemistry_Notes>
This compound contains an electron-poor aromatic ring that is susceptible to covalent hydrolysis at low pH, typically resulting in measured values for nitrogen ring protonation that are around two units higher than predicted values.

> <s_m_subgroup_title>
ligprep_SpotXplore-out1

> <s_m_subgroupid>
ligprep_SpotXplore-out1

> <b_m_subgroup_collapsed>
0

$$$$
mol_ID_8
                    3D
 Schrodinger Suite 2020-4.
  9  9  0  0  1  0            999 V2000
   -1.6479   -0.1090    2.8149 Br  0  0  0  0  0  0
   -2.1451   -0.6125    1.0488 C   0  0  0  0  0  0
   -3.3394   -1.1073    0.7572 N   0  0  0  0  0  0
   -3.2598   -1.3273   -0.6215 C   0  0  0  0  0  0
   -2.0178   -0.9532   -1.0943 C   0  0  0  0  0  0
   -1.3184   -0.4946    0.0097 N   0  0  0  0  0  0
   -4.0990   -1.7362   -1.1648 H   0  0  0  0  0  0
   -1.5916   -0.9750   -2.0865 H   0  0  0  0  0  0
   -0.3724   -0.1414    0.0268 H   0  0  0  0  0  0
  1  2  1  0  0  0
  2  6  1  0  0  0
  2  3  2  0  0  0
  3  4  1  0  0  0
  4  5  2  0  0  0
  4  7  1  0  0  0
  5  6  1  0  0  0
  5  8  1  0  0  0
  6  9  1  0  0  0
M  END
> <s_m_entry_id>
874

> <s_m_entry_name>
Spot_Xplore.std.8

> <s_m_Source_Path>
/Volumes/cluster/ddu/2448959/Work/2023/01_Fragment_screening_lib/1_Library_Construction/Work/SpotX/Ph4_Hypo_JC2

> <s_m_Source_File>
SpotX.maegz

> <i_m_Source_File_Index>
8

> <s_m_job_name>
ligprep_SpotXplore

> <i_lp_mmshare_version>
52144

> <s_epik_input>
QnJjMW5bY0hdW2NIXVtuSF0x

> <s_epik_cmdline>
J2VwaWtfcHl0aG9uJywgJy1waHQnLCAnMS4wJywgJy1waCcsICc3LjAnLCAnLXRuJywgJzgnLCAnLW1hJywgJzIwMCcsICctaW1hZScsICc8aW5maWxlLm1hZT4nLCAnLW9tYWUnLCAnPG91dGZpbGUubWFlPic=

> <r_lp_tautomer_probability>
1

> <r_epik_Ionization_Penalty>
  0.0006

> <r_epik_Ionization_Penalty_Charging>
  0.0005

> <r_epik_Ionization_Penalty_Neutral>
  0.0001

> <r_epik_State_Penalty>
  0.0000

> <r_epik_Charging_Adjusted_Penalty>
0.000519346932377164

> <i_epik_Tot_Q>
0

> <i_epik_Tot_abs_Q>
0

> <i_f3d_flags>
0

> <s_lp_Force_Field>
OPLS_2005

> <r_lp_Energy>
3.584982

> <b_lp_Chiralities_Consistent>
1

> <s_lp_Variant>
mol_ID_8-1

> <s_m_subgroup_title>
ligprep_SpotXplore-out1

> <s_m_subgroupid>
ligprep_SpotXplore-out1

> <b_m_subgroup_collapsed>
0

$$$$
mol_ID_9
                    3D
 Schrodinger Suite 2020-4.
  9  9  0  0  1  0            999 V2000
    5.9785  -11.7611   -1.8554 Cl  0  0  0  0  0  0
    5.7635  -10.1924   -1.1708 C   0  0  0  0  0  0
    5.5629   -9.8848    0.2012 C   0  0  0  0  0  0
    5.4337   -8.5773    0.3816 N   0  0  0  0  0  0
    5.5506   -8.0554   -0.8619 N   0  0  0  0  0  0
    5.7529   -9.0059   -1.8395 C   0  0  0  0  0  0
    5.5080  -10.5488    1.0511 H   0  0  0  0  0  0
    5.4906   -7.0601   -1.0242 H   0  0  0  0  0  0
    5.8670   -8.7620   -2.8855 H   0  0  0  0  0  0
  1  2  1  0  0  0
  2  6  2  0  0  0
  2  3  1  0  0  0
  3  4  2  0  0  0
  3  7  1  0  0  0
  4  5  1  0  0  0
  5  6  1  0  0  0
  5  8  1  0  0  0
  6  9  1  0  0  0
M  END
> <s_m_entry_id>
875

> <s_m_entry_name>
Spot_Xplore.std.9

> <s_m_Source_Path>
/Volumes/cluster/ddu/2448959/Work/2023/01_Fragment_screening_lib/1_Library_Construction/Work/SpotX/Ph4_Hypo_JC2

> <s_m_Source_File>
SpotX.maegz

> <i_m_Source_File_Index>
9

> <s_m_job_name>
ligprep_SpotXplore

> <i_lp_mmshare_version>
52144

> <s_epik_input>
Q2xjMVtjSF1uW25IXVtjSF0x

> <s_epik_cmdline>
J2VwaWtfcHl0aG9uJywgJy1waHQnLCAnMS4wJywgJy1waCcsICc3LjAnLCAnLXRuJywgJzgnLCAnLW1hJywgJzIwMCcsICctaW1hZScsICc8aW5maWxlLm1hZT4nLCAnLW9tYWUnLCAnPG91dGZpbGUubWFlPic=

> <r_lp_tautomer_probability>
1

> <r_epik_Ionization_Penalty>
  0.0000

> <r_epik_Ionization_Penalty_Charging>
  0.0000

> <r_epik_Ionization_Penalty_Neutral>
  0.0000

> <r_epik_State_Penalty>
  0.0000

> <r_epik_Charging_Adjusted_Penalty>
0

> <i_epik_Tot_Q>
0

> <i_epik_Tot_abs_Q>
0

> <i_f3d_flags>
0

> <s_lp_Force_Field>
OPLS_2005

> <r_lp_Energy>
3.511066

> <b_lp_Chiralities_Consistent>
1

> <s_lp_Variant>
mol_ID_9-1

> <s_m_subgroup_title>
ligprep_SpotXplore-out1

> <s_m_subgroupid>
ligprep_SpotXplore-out1

> <b_m_subgroup_collapsed>
0

$$$$
mol_ID_10
                    3D
 Schrodinger Suite 2020-4.
 11 11  0  0  1  0            999 V2000
   -1.1780   -0.0216    0.0008 C   0  0  0  0  0  0
    0.0431   -0.0181    0.0006 C   0  0  0  0  0  0
    1.4582   -0.0081    0.0002 C   0  0  0  0  0  0
    2.3369    1.1154   -0.0000 C   0  0  0  0  0  0
    3.6167    0.7744   -0.0002 N   0  0  0  0  0  0
    3.5870   -0.5711   -0.0002 N   0  0  0  0  0  0
    2.3085   -1.0783    0.0000 C   0  0  0  0  0  0
   -2.2450   -0.0214    0.0007 H   0  0  0  0  0  0
    2.0826    2.1651   -0.0000 H   0  0  0  0  0  0
    4.4342   -1.1212   -0.0001 H   0  0  0  0  0  0
    2.1147   -2.1410   -0.0000 H   0  0  0  0  0  0
  1  2  3  0  0  0
  1  8  1  0  0  0
  2  3  1  0  0  0
  3  7  2  0  0  0
  3  4  1  0  0  0
  4  5  2  0  0  0
  4  9  1  0  0  0
  5  6  1  0  0  0
  6  7  1  0  0  0
  6 10  1  0  0  0
  7 11  1  0  0  0
M  END
> <s_m_entry_id>
876

> <s_m_entry_name>
Spot_Xplore.std.10

> <s_m_Source_Path>
/Volumes/cluster/ddu/2448959/Work/2023/01_Fragment_screening_lib/1_Library_Construction/Work/SpotX/Ph4_Hypo_JC2

> <s_m_Source_File>
SpotX.maegz

> <i_m_Source_File_Index>
10

> <s_m_job_name>
ligprep_SpotXplore

> <i_lp_mmshare_version>
52144

> <s_epik_input>
W0NIXSNDYzFbY0hdbltuSF1bY0hdMQ==

> <s_epik_cmdline>
J2VwaWtfcHl0aG9uJywgJy1waHQnLCAnMS4wJywgJy1waCcsICc3LjAnLCAnLXRuJywgJzgnLCAnLW1hJywgJzIwMCcsICctaW1hZScsICc8aW5maWxlLm1hZT4nLCAnLW9tYWUnLCAnPG91dGZpbGUubWFlPic=

> <r_lp_tautomer_probability>
1

> <r_epik_Ionization_Penalty>
  0.0000

> <r_epik_Ionization_Penalty_Charging>
  0.0000

> <r_epik_Ionization_Penalty_Neutral>
  0.0000

> <r_epik_State_Penalty>
  0.0000

> <r_epik_Charging_Adjusted_Penalty>
0

> <i_epik_Tot_Q>
0

> <i_epik_Tot_abs_Q>
0

> <i_f3d_flags>
0

> <s_lp_Force_Field>
OPLS_2005

> <r_lp_Energy>
0.78831

> <b_lp_Chiralities_Consistent>
1

> <s_lp_Variant>
mol_ID_10-1

> <s_m_subgroup_title>
ligprep_SpotXplore-out1

> <s_m_subgroupid>
ligprep_SpotXplore-out1

> <b_m_subgroup_collapsed>
0

$$$$
mol_ID_11
                    3D
 Schrodinger Suite 2020-4.
 16 16  0  0  1  0            999 V2000
   -1.1929   -0.0724    0.0007 C   0  0  0  0  0  0
    0.0280   -0.0519    0.0005 C   0  0  0  0  0  0
    1.4449   -0.0218    0.0002 C   0  0  0  0  0  0
    2.3121    1.1102   -0.0000 C   0  0  0  0  0  0
    1.9650    2.5726    0.0000 C   0  0  0  0  0  0
    3.5863    0.7558   -0.0003 N   0  0  0  0  0  0
    3.5956   -0.6419   -0.0003 O   0  0  0  0  0  0
    2.3115   -1.0815    0.0000 C   0  0  0  0  0  0
    2.1231   -2.5623   -0.0000 C   0  0  0  0  0  0
   -2.2598   -0.0874    0.0008 H   0  0  0  0  0  0
    0.8867    2.7312    0.0000 H   0  0  0  0  0  0
    2.3704    3.0707   -0.8809 H   0  0  0  0  0  0
    2.3704    3.0707    0.8810 H   0  0  0  0  0  0
    1.0657   -2.8265    0.0000 H   0  0  0  0  0  0
    2.5814   -3.0090    0.8825 H   0  0  0  0  0  0
    2.5814   -3.0090   -0.8823 H   0  0  0  0  0  0
  1  2  3  0  0  0
  1 10  1  0  0  0
  2  3  1  0  0  0
  3  8  2  0  0  0
  3  4  1  0  0  0
  4  5  1  0  0  0
  4  6  2  0  0  0
  5 11  1  0  0  0
  5 12  1  0  0  0
  5 13  1  0  0  0
  6  7  1  0  0  0
  7  8  1  0  0  0
  8  9  1  0  0  0
  9 14  1  0  0  0
  9 15  1  0  0  0
  9 16  1  0  0  0
M  END
> <s_m_entry_id>
877

> <s_m_entry_name>
Spot_Xplore.std.11

> <s_m_Source_Path>
/Volumes/cluster/ddu/2448959/Work/2023/01_Fragment_screening_lib/1_Library_Construction/Work/SpotX/Ph4_Hypo_JC2

> <s_m_Source_File>
SpotX.maegz

> <i_m_Source_File_Index>
11

> <s_m_job_name>
ligprep_SpotXplore

> <i_lp_mmshare_version>
52144

> <s_epik_input>
W0NIXSNDYzFjKFtDSDNdKW5vYzFbQ0gzXQ==

> <s_epik_cmdline>
J2VwaWtfcHl0aG9uJywgJy1waHQnLCAnMS4wJywgJy1waCcsICc3LjAnLCAnLXRuJywgJzgnLCAnLW1hJywgJzIwMCcsICctaW1hZScsICc8aW5maWxlLm1hZT4nLCAnLW9tYWUnLCAnPG91dGZpbGUubWFlPic=

> <r_lp_tautomer_probability>
1

> <r_epik_Ionization_Penalty>
  0.0000

> <r_epik_Ionization_Penalty_Charging>
  0.0000

> <r_epik_Ionization_Penalty_Neutral>
  0.0000

> <r_epik_State_Penalty>
  0.0000

> <r_epik_Charging_Adjusted_Penalty>
0

> <i_epik_Tot_Q>
0

> <i_epik_Tot_abs_Q>
0

> <i_f3d_flags>
0

> <s_lp_Force_Field>
OPLS_2005

> <r_lp_Energy>
-1.346263

> <b_lp_Chiralities_Consistent>
1

> <s_lp_Variant>
mol_ID_11-1

> <s_m_subgroup_title>
ligprep_SpotXplore-out1

> <s_m_subgroupid>
ligprep_SpotXplore-out1

> <b_m_subgroup_collapsed>
0

$$$$
mol_ID_12
                    3D
 Schrodinger Suite 2020-4.
 11 11  0  0  1  0            999 V2000
   -3.2553    1.0541    3.7406 Cl  0  0  0  0  0  0
   -4.0924    0.0521    2.6127 C   0  0  0  0  0  0
   -5.4340   -0.3155    2.8338 C   0  0  0  0  0  0
   -6.0757   -1.1351    1.8848 C   0  0  0  0  0  0
   -5.3442   -1.5513    0.7540 C   0  0  0  0  0  0
   -4.0574   -1.2039    0.5336 N   0  0  0  0  0  0
   -3.4498   -0.4176    1.4489 C   0  0  0  0  0  0
   -5.9616    0.0235    3.7130 H   0  0  0  0  0  0
   -7.1036   -1.4377    2.0197 H   0  0  0  0  0  0
   -5.8052   -2.1802    0.0067 H   0  0  0  0  0  0
   -2.4217   -0.1561    1.2465 H   0  0  0  0  0  0
  1  2  1  0  0  0
  2  7  1  0  0  0
  2  3  2  0  0  0
  3  4  1  0  0  0
  3  8  1  0  0  0
  4  5  2  0  0  0
  4  9  1  0  0  0
  5  6  1  0  0  0
  5 10  1  0  0  0
  6  7  2  0  0  0
  7 11  1  0  0  0
M  END
> <s_m_entry_id>
878

> <s_m_entry_name>
Spot_Xplore.std.12

> <s_m_Source_Path>
/Volumes/cluster/ddu/2448959/Work/2023/01_Fragment_screening_lib/1_Library_Construction/Work/SpotX/Ph4_Hypo_JC2

> <s_m_Source_File>
SpotX.maegz

> <i_m_Source_File_Index>
12

> <s_m_job_name>
ligprep_SpotXplore

> <i_lp_mmshare_version>
52144

> <s_epik_input>
Q2xjMVtjSF1bY0hdW2NIXW5bY0hdMQ==

> <s_epik_cmdline>
J2VwaWtfcHl0aG9uJywgJy1waHQnLCAnMS4wJywgJy1waCcsICc3LjAnLCAnLXRuJywgJzgnLCAnLW1hJywgJzIwMCcsICctaW1hZScsICc8aW5maWxlLm1hZT4nLCAnLW9tYWUnLCAnPG91dGZpbGUubWFlPic=

> <r_lp_tautomer_probability>
1

> <r_epik_Ionization_Penalty>
  0.0001

> <r_epik_Ionization_Penalty_Charging>
  0.0000

> <r_epik_Ionization_Penalty_Neutral>
  0.0001

> <r_epik_State_Penalty>
  0.0000

> <r_epik_Charging_Adjusted_Penalty>
0

> <i_epik_Tot_Q>
0

> <i_epik_Tot_abs_Q>
0

> <i_f3d_flags>
0

> <s_lp_Force_Field>
OPLS_2005

> <r_lp_Energy>
3.28542

> <b_lp_Chiralities_Consistent>
1

> <s_lp_Variant>
mol_ID_12-1

> <s_m_subgroup_title>
ligprep_SpotXplore-out1

> <s_m_subgroupid>
ligprep_SpotXplore-out1

> <b_m_subgroup_collapsed>
0

$$$$
mol_ID_13
                    3D
 Schrodinger Suite 2020-4.
 12 12  0  0  1  0            999 V2000
   -1.1343    0.0056   -0.0000 N   0  0  0  0  0  0
    0.0227    0.0068    0.0000 C   0  0  0  0  0  0
    1.4758    0.0081    0.0000 C   0  0  0  0  0  0
    2.1928    1.2221    0.0000 C   0  0  0  0  0  0
    3.6010    1.1673    0.0000 C   0  0  0  0  0  0
    4.2987    0.0110    0.0000 N   0  0  0  0  0  0
    3.6034   -1.1469    0.0000 C   0  0  0  0  0  0
    2.1952   -1.2043   -0.0000 C   0  0  0  0  0  0
    1.6821    2.1744    0.0000 H   0  0  0  0  0  0
    4.1827    2.0772    0.0000 H   0  0  0  0  0  0
    4.1868   -2.0557    0.0000 H   0  0  0  0  0  0
    1.6863   -2.1576   -0.0000 H   0  0  0  0  0  0
  1  2  3  0  0  0
  2  3  1  0  0  0
  3  8  1  0  0  0
  3  4  2  0  0  0
  4  5  1  0  0  0
  4  9  1  0  0  0
  5  6  2  0  0  0
  5 10  1  0  0  0
  6  7  1  0  0  0
  7  8  2  0  0  0
  7 11  1  0  0  0
  8 12  1  0  0  0
M  END
> <s_m_entry_id>
879

> <s_m_entry_name>
Spot_Xplore.std.13

> <s_m_Source_Path>
/Volumes/cluster/ddu/2448959/Work/2023/01_Fragment_screening_lib/1_Library_Construction/Work/SpotX/Ph4_Hypo_JC2

> <s_m_Source_File>
SpotX.maegz

> <i_m_Source_File_Index>
13

> <s_m_job_name>
ligprep_SpotXplore

> <i_lp_mmshare_version>
52144

> <s_epik_input>
TiNDYzFbY0hdW2NIXW5bY0hdW2NIXTE=

> <s_epik_cmdline>
J2VwaWtfcHl0aG9uJywgJy1waHQnLCAnMS4wJywgJy1waCcsICc3LjAnLCAnLXRuJywgJzgnLCAnLW1hJywgJzIwMCcsICctaW1hZScsICc8aW5maWxlLm1hZT4nLCAnLW9tYWUnLCAnPG91dGZpbGUubWFlPic=

> <r_lp_tautomer_probability>
1

> <r_epik_Ionization_Penalty>
  0.0000

> <r_epik_Ionization_Penalty_Charging>
  0.0000

> <r_epik_Ionization_Penalty_Neutral>
  0.0000

> <r_epik_State_Penalty>
  0.0000

> <r_epik_Charging_Adjusted_Penalty>
0

> <i_epik_Tot_Q>
0

> <i_epik_Tot_abs_Q>
0

> <i_f3d_flags>
0

> <s_lp_Force_Field>
OPLS_2005

> <r_lp_Energy>
1.680362

> <b_lp_Chiralities_Consistent>
1

> <s_lp_Variant>
mol_ID_13-1

> <s_m_subgroup_title>
ligprep_SpotXplore-out1

> <s_m_subgroupid>
ligprep_SpotXplore-out1

> <b_m_subgroup_collapsed>
0

$$$$
mol_ID_14
                    3D
 Schrodinger Suite 2020-4.
 10 10  0  0  1  0            999 V2000
    3.9082   -0.9213   -0.0413 Br  0  0  0  0  0  0
    2.2613    0.0315   -0.0196 C   0  0  0  0  0  0
    2.3259    1.3672   -0.0129 N   0  0  0  0  0  0
    1.1602    2.0488    0.0025 C   0  0  0  0  0  0
   -0.0832    1.3879    0.0113 C   0  0  0  0  0  0
   -0.0364   -0.0195    0.0030 C   0  0  0  0  0  0
    1.1355   -0.6903   -0.0124 N   0  0  0  0  0  0
    1.2202    3.1271    0.0079 H   0  0  0  0  0  0
   -1.0179    1.9286    0.0236 H   0  0  0  0  0  0
   -0.9412   -0.6090    0.0088 H   0  0  0  0  0  0
  1  2  1  0  0  0
  2  7  1  0  0  0
  2  3  2  0  0  0
  3  4  1  0  0  0
  4  5  2  0  0  0
  4  8  1  0  0  0
  5  6  1  0  0  0
  5  9  1  0  0  0
  6  7  2  0  0  0
  6 10  1  0  0  0
M  END
> <s_m_entry_id>
880

> <s_m_entry_name>
Spot_Xplore.std.14

> <s_m_Source_Path>
/Volumes/cluster/ddu/2448959/Work/2023/01_Fragment_screening_lib/1_Library_Construction/Work/SpotX/Ph4_Hypo_JC2

> <s_m_Source_File>
SpotX.maegz

> <i_m_Source_File_Index>
14

> <s_m_job_name>
ligprep_SpotXplore

> <i_lp_mmshare_version>
52144

> <s_epik_input>
QnJjMW5bY0hdW2NIXVtjSF1uMQ==

> <s_epik_cmdline>
J2VwaWtfcHl0aG9uJywgJy1waHQnLCAnMS4wJywgJy1waCcsICc3LjAnLCAnLXRuJywgJzgnLCAnLW1hJywgJzIwMCcsICctaW1hZScsICc8aW5maWxlLm1hZT4nLCAnLW9tYWUnLCAnPG91dGZpbGUubWFlPic=

> <r_lp_tautomer_probability>
1

> <r_epik_Ionization_Penalty>
  0.0000

> <r_epik_Ionization_Penalty_Charging>
  0.0000

> <r_epik_Ionization_Penalty_Neutral>
  0.0000

> <r_epik_State_Penalty>
  0.0000

> <r_epik_Charging_Adjusted_Penalty>
0

> <i_epik_Tot_Q>
0

> <i_epik_Tot_abs_Q>
0

> <i_f3d_flags>
0

> <s_lp_Force_Field>
OPLS_2005

> <r_lp_Energy>
-3.075623

> <b_lp_Chiralities_Consistent>
1

> <s_lp_Variant>
mol_ID_14-1

> <s_epik_Chemistry_Notes>
This compound contains an electron-poor aromatic ring that is susceptible to covalent hydrolysis at low pH, typically resulting in measured values for nitrogen ring protonation that are around two units higher than predicted values.

> <s_m_subgroup_title>
ligprep_SpotXplore-out1

> <s_m_subgroupid>
ligprep_SpotXplore-out1

> <b_m_subgroup_collapsed>
0

$$$$
mol_ID_15
                    3D
 Schrodinger Suite 2020-4.
 12 12  0  0  1  0            999 V2000
   -1.1940    0.0050   -0.0000 C   0  0  0  0  0  0
    0.0271   -0.0017    0.0001 C   0  0  0  0  0  0
    1.4800   -0.0003    0.0000 C   0  0  0  0  0  0
    2.2232    1.1989    0.0000 C   0  0  0  0  0  0
    3.5745    1.1945   -0.0000 N   0  0  0  0  0  0
    4.1731    0.0001   -0.0000 C   0  0  0  0  0  0
    3.5749   -1.1944   -0.0000 N   0  0  0  0  0  0
    2.2237   -1.1991   -0.0000 C   0  0  0  0  0  0
   -2.2609    0.0080    0.0018 H   0  0  0  0  0  0
    1.7384    2.1645    0.0000 H   0  0  0  0  0  0
    5.2530    0.0001    0.0000 H   0  0  0  0  0  0
    1.7388   -2.1646    0.0000 H   0  0  0  0  0  0
  1  2  3  0  0  0
  1  9  1  0  0  0
  2  3  1  0  0  0
  3  8  1  0  0  0
  3  4  2  0  0  0
  4  5  1  0  0  0
  4 10  1  0  0  0
  5  6  2  0  0  0
  6  7  1  0  0  0
  6 11  1  0  0  0
  7  8  2  0  0  0
  8 12  1  0  0  0
M  END
> <s_m_entry_id>
881

> <s_m_entry_name>
Spot_Xplore.std.15

> <s_m_Source_Path>
/Volumes/cluster/ddu/2448959/Work/2023/01_Fragment_screening_lib/1_Library_Construction/Work/SpotX/Ph4_Hypo_JC2

> <s_m_Source_File>
SpotX.maegz

> <i_m_Source_File_Index>
15

> <s_m_job_name>
ligprep_SpotXplore

> <i_lp_mmshare_version>
52144

> <s_epik_input>
W0NIXSNDYzFbY0hdbltjSF1uW2NIXTE=

> <s_epik_cmdline>
J2VwaWtfcHl0aG9uJywgJy1waHQnLCAnMS4wJywgJy1waCcsICc3LjAnLCAnLXRuJywgJzgnLCAnLW1hJywgJzIwMCcsICctaW1hZScsICc8aW5maWxlLm1hZT4nLCAnLW9tYWUnLCAnPG91dGZpbGUubWFlPic=

> <r_lp_tautomer_probability>
1

> <r_epik_Ionization_Penalty>
  0.0000

> <r_epik_Ionization_Penalty_Charging>
  0.0000

> <r_epik_Ionization_Penalty_Neutral>
  0.0000

> <r_epik_State_Penalty>
  0.0000

> <r_epik_Charging_Adjusted_Penalty>
0

> <i_epik_Tot_Q>
0

> <i_epik_Tot_abs_Q>
0

> <i_f3d_flags>
0

> <s_lp_Force_Field>
OPLS_2005

> <r_lp_Energy>
-0.819793

> <b_lp_Chiralities_Consistent>
1

> <s_lp_Variant>
mol_ID_15-1

> <s_epik_Chemistry_Notes>
This compound contains an electron-poor aromatic ring that is susceptible to covalent hydrolysis at low pH, typically resulting in measured values for nitrogen ring protonation that are around two units higher than predicted values.

> <s_m_subgroup_title>
ligprep_SpotXplore-out1

> <s_m_subgroupid>
ligprep_SpotXplore-out1

> <b_m_subgroup_collapsed>
0

$$$$
mol_ID_16
                    3D
 Schrodinger Suite 2020-4.
  9  9  0  0  1  0            999 V2000
    1.9636   -2.0689   -0.0263 Br  0  0  0  0  0  0
    1.2843   -0.2918   -0.0115 C   0  0  0  0  0  0
   -0.0483    0.0443    0.0019 C   0  0  0  0  0  0
   -0.0472    1.4296    0.0088 N   0  0  0  0  0  0
    1.2309    1.8328   -0.0006 C   0  0  0  0  0  0
    2.1066    0.8327   -0.0132 N   0  0  0  0  0  0
   -0.9493   -0.5511    0.0070 H   0  0  0  0  0  0
   -0.8610    2.0277    0.0189 H   0  0  0  0  0  0
    1.5230    2.8726    0.0020 H   0  0  0  0  0  0
  1  2  1  0  0  0
  2  6  1  0  0  0
  2  3  2  0  0  0
  3  4  1  0  0  0
  3  7  1  0  0  0
  4  5  1  0  0  0
  4  8  1  0  0  0
  5  6  2  0  0  0
  5  9  1  0  0  0
M  END
> <s_m_entry_id>
882

> <s_m_entry_name>
Spot_Xplore.std.16

> <s_m_Source_Path>
/Volumes/cluster/ddu/2448959/Work/2023/01_Fragment_screening_lib/1_Library_Construction/Work/SpotX/Ph4_Hypo_JC2

> <s_m_Source_File>
SpotX.maegz

> <i_m_Source_File_Index>
16

> <s_m_job_name>
ligprep_SpotXplore

> <i_lp_mmshare_version>
52144

> <s_epik_input>
QnJjMVtjSF1bbkhdW2NIXW4x

> <s_epik_cmdline>
J2VwaWtfcHl0aG9uJywgJy1waHQnLCAnMS4wJywgJy1waCcsICc3LjAnLCAnLXRuJywgJzgnLCAnLW1hJywgJzIwMCcsICctaW1hZScsICc8aW5maWxlLm1hZT4nLCAnLW9tYWUnLCAnPG91dGZpbGUubWFlPic=

> <r_lp_tautomer_probability>
0.499999999999999

> <r_epik_Ionization_Penalty>
  0.0010

> <r_epik_Ionization_Penalty_Charging>
  0.0010

> <r_epik_Ionization_Penalty_Neutral>
  0.0000

> <r_epik_State_Penalty>
  0.2337

> <r_epik_Charging_Adjusted_Penalty>
0.234767204020712

> <i_epik_Tot_Q>
0

> <i_epik_Tot_abs_Q>
0

> <i_f3d_flags>
0

> <s_lp_Force_Field>
OPLS_2005

> <r_lp_Energy>
3.846979

> <b_lp_Chiralities_Consistent>
1

> <s_lp_Variant>
mol_ID_16-1

> <s_m_subgroup_title>
ligprep_SpotXplore-out1

> <s_m_subgroupid>
ligprep_SpotXplore-out1

> <b_m_subgroup_collapsed>
0

$$$$
mol_ID_16
                    3D
 Schrodinger Suite 2020-4.
  9  9  0  0  1  0            999 V2000
   -7.6890   -4.7023   -1.9798 Br  0  0  0  0  0  0
   -6.1979   -5.8794   -1.8803 C   0  0  0  0  0  0
   -6.1728   -7.1334   -1.3207 C   0  0  0  0  0  0
   -4.8792   -7.6457   -1.4643 N   0  0  0  0  0  0
   -4.2038   -6.6845   -2.0947 C   0  0  0  0  0  0
   -4.9396   -5.6017   -2.3707 N   0  0  0  0  0  0
   -6.9592   -7.6951   -0.8386 H   0  0  0  0  0  0
   -4.6383   -4.7593   -2.8390 H   0  0  0  0  0  0
   -3.1600   -6.7723   -2.3578 H   0  0  0  0  0  0
  1  2  1  0  0  0
  2  3  2  0  0  0
  2  6  1  0  0  0
  3  7  1  0  0  0
  3  4  1  0  0  0
  4  5  2  0  0  0
  5  6  1  0  0  0
  5  9  1  0  0  0
  6  8  1  0  0  0
M  END
> <s_m_entry_id>
883

> <s_m_entry_name>
Spot_Xplore.std.16

> <s_m_Source_Path>
/Volumes/cluster/ddu/2448959/Work/2023/01_Fragment_screening_lib/1_Library_Construction/Work/SpotX/Ph4_Hypo_JC2

> <s_m_Source_File>
SpotX.maegz

> <i_m_Source_File_Index>
17

> <s_m_job_name>
ligprep_SpotXplore

> <i_lp_mmshare_version>
52144

> <s_epik_input>
QnJjMVtjSF1bbkhdW2NIXW4x

> <s_epik_cmdline>
J2VwaWtfcHl0aG9uJywgJy1waHQnLCAnMS4wJywgJy1waCcsICc3LjAnLCAnLXRuJywgJzgnLCAnLW1hJywgJzIwMCcsICctaW1hZScsICc8aW5maWxlLm1hZT4nLCAnLW9tYWUnLCAnPG91dGZpbGUubWFlPic=

> <r_lp_tautomer_probability>
0.499999999999999

> <r_epik_Ionization_Penalty>
  0.0081

> <r_epik_Ionization_Penalty_Charging>
  0.0081

> <r_epik_Ionization_Penalty_Neutral>
  0.0001

> <r_epik_State_Penalty>
  0.6671

> <r_epik_Charging_Adjusted_Penalty>
0.675128241645226

> <i_epik_Tot_Q>
0

> <i_epik_Tot_abs_Q>
0

> <i_f3d_flags>
0

> <s_lp_Force_Field>
OPLS_2005

> <r_lp_Energy>
5.148975

> <b_lp_Chiralities_Consistent>
1

> <s_lp_Variant>
mol_ID_16-2

> <s_m_subgroup_title>
ligprep_SpotXplore-out1

> <s_m_subgroupid>
ligprep_SpotXplore-out1

> <b_m_subgroup_collapsed>
0

$$$$
mol_ID_17
                    3D
 Schrodinger Suite 2020-4.
  9  9  0  0  1  0            999 V2000
   -2.8087    2.6559   -4.2044 Br  0  0  0  0  0  0
   -2.4502    1.4550   -2.7728 C   0  0  0  0  0  0
   -3.1626    0.2661   -2.4626 C   0  0  0  0  0  0
   -2.6462   -0.3331   -1.3981 N   0  0  0  0  0  0
   -1.6153    0.4645   -1.0326 N   0  0  0  0  0  0
   -1.4600    1.5673   -1.8446 C   0  0  0  0  0  0
   -4.0151   -0.1709   -2.9612 H   0  0  0  0  0  0
   -1.0342    0.2448   -0.2359 H   0  0  0  0  0  0
   -0.6870    2.3066   -1.6951 H   0  0  0  0  0  0
  1  2  1  0  0  0
  2  6  2  0  0  0
  2  3  1  0  0  0
  3  4  2  0  0  0
  3  7  1  0  0  0
  4  5  1  0  0  0
  5  6  1  0  0  0
  5  8  1  0  0  0
  6  9  1  0  0  0
M  END
> <s_m_entry_id>
884

> <s_m_entry_name>
Spot_Xplore.std.17

> <s_m_Source_Path>
/Volumes/cluster/ddu/2448959/Work/2023/01_Fragment_screening_lib/1_Library_Construction/Work/SpotX/Ph4_Hypo_JC2

> <s_m_Source_File>
SpotX.maegz

> <i_m_Source_File_Index>
18

> <s_m_job_name>
ligprep_SpotXplore

> <i_lp_mmshare_version>
52144

> <s_epik_input>
QnJjMVtjSF1uW25IXVtjSF0x

> <s_epik_cmdline>
J2VwaWtfcHl0aG9uJywgJy1waHQnLCAnMS4wJywgJy1waCcsICc3LjAnLCAnLXRuJywgJzgnLCAnLW1hJywgJzIwMCcsICctaW1hZScsICc8aW5maWxlLm1hZT4nLCAnLW9tYWUnLCAnPG91dGZpbGUubWFlPic=

> <r_lp_tautomer_probability>
1

> <r_epik_Ionization_Penalty>
  0.0000

> <r_epik_Ionization_Penalty_Charging>
  0.0000

> <r_epik_Ionization_Penalty_Neutral>
  0.0000

> <r_epik_State_Penalty>
  0.0000

> <r_epik_Charging_Adjusted_Penalty>
0

> <i_epik_Tot_Q>
0

> <i_epik_Tot_abs_Q>
0

> <i_f3d_flags>
0

> <s_lp_Force_Field>
OPLS_2005

> <r_lp_Energy>
3.482665

> <b_lp_Chiralities_Consistent>
1

> <s_lp_Variant>
mol_ID_17-1

> <s_m_subgroup_title>
ligprep_SpotXplore-out1

> <s_m_subgroupid>
ligprep_SpotXplore-out1

> <b_m_subgroup_collapsed>
0

$$$$
mol_ID_18
                    3D
 Schrodinger Suite 2020-4.
 11 11  0  0  1  0            999 V2000
   -1.1255    0.0568    0.0007 C   0  0  0  0  0  0
    0.0951    0.0207    0.0005 C   0  0  0  0  0  0
    1.4989   -0.0456    0.0002 C   0  0  0  0  0  0
    2.3604    1.0104    0.0000 C   0  0  0  0  0  0
    3.6328    0.3635   -0.0001 C   0  0  0  0  0  0
    3.5474   -0.9640   -0.0002 N   0  0  0  0  0  0
    2.2216   -1.2111   -0.0000 N   0  0  0  0  0  0
   -2.1920    0.0859    0.0008 H   0  0  0  0  0  0
    2.1283    2.0653    0.0000 H   0  0  0  0  0  0
    4.6129    0.8173   -0.0002 H   0  0  0  0  0  0
    1.8453   -2.1485    0.0000 H   0  0  0  0  0  0
  1  2  3  0  0  0
  1  8  1  0  0  0
  2  3  1  0  0  0
  3  7  1  0  0  0
  3  4  2  0  0  0
  4  5  1  0  0  0
  4  9  1  0  0  0
  5  6  2  0  0  0
  5 10  1  0  0  0
  6  7  1  0  0  0
  7 11  1  0  0  0
M  END
> <s_m_entry_id>
885

> <s_m_entry_name>
Spot_Xplore.std.18

> <s_m_Source_Path>
/Volumes/cluster/ddu/2448959/Work/2023/01_Fragment_screening_lib/1_Library_Construction/Work/SpotX/Ph4_Hypo_JC2

> <s_m_Source_File>
SpotX.maegz

> <i_m_Source_File_Index>
19

> <s_m_job_name>
ligprep_SpotXplore

> <i_lp_mmshare_version>
52144

> <s_epik_input>
W0NIXSNDYzFbY0hdW2NIXW5bbkhdMQ==

> <s_epik_cmdline>
J2VwaWtfcHl0aG9uJywgJy1waHQnLCAnMS4wJywgJy1waCcsICc3LjAnLCAnLXRuJywgJzgnLCAnLW1hJywgJzIwMCcsICctaW1hZScsICc8aW5maWxlLm1hZT4nLCAnLW9tYWUnLCAnPG91dGZpbGUubWFlPic=

> <r_lp_tautomer_probability>
1

> <r_epik_Ionization_Penalty>
  0.0000

> <r_epik_Ionization_Penalty_Charging>
  0.0000

> <r_epik_Ionization_Penalty_Neutral>
  0.0000

> <r_epik_State_Penalty>
  0.0000

> <r_epik_Charging_Adjusted_Penalty>
0

> <i_epik_Tot_Q>
0

> <i_epik_Tot_abs_Q>
0

> <i_f3d_flags>
0

> <s_lp_Force_Field>
OPLS_2005

> <r_lp_Energy>
2.09961

> <b_lp_Chiralities_Consistent>
1

> <s_lp_Variant>
mol_ID_18-1

> <s_m_subgroup_title>
ligprep_SpotXplore-out1

> <s_m_subgroupid>
ligprep_SpotXplore-out1

> <b_m_subgroup_collapsed>
0

$$$$
mol_ID_19
                    3D
 Schrodinger Suite 2020-4.
 18 18  0  0  1  0            999 V2000
   -0.8539    1.0782   -0.0000 C   0  0  0  0  0  0
    0.0079    0.0482    0.0000 C   0  0  0  0  0  0
    1.4511    0.0740   -0.0000 C   0  0  0  0  0  0
    2.2985   -1.0780   -0.0000 C   0  0  0  0  0  0
    1.9345   -2.5375   -0.0000 C   0  0  0  0  0  0
    3.5791   -0.7597   -0.0000 N   0  0  0  0  0  0
    3.6208    0.6333   -0.0000 O   0  0  0  0  0  0
    2.3522    1.1163   -0.0000 C   0  0  0  0  0  0
    2.2849    2.6103    0.0000 C   0  0  0  0  0  0
   -0.5550    2.1099   -0.0000 H   0  0  0  0  0  0
   -1.9170    0.8864    0.0000 H   0  0  0  0  0  0
   -0.4652   -0.9217    0.0000 H   0  0  0  0  0  0
    0.8574   -2.6956   -0.0000 H   0  0  0  0  0  0
    2.3377   -3.0395    0.8799 H   0  0  0  0  0  0
    2.3377   -3.0395   -0.8799 H   0  0  0  0  0  0
    1.2739    3.0008    0.0000 H   0  0  0  0  0  0
    2.7888    3.0111   -0.8795 H   0  0  0  0  0  0
    2.7888    3.0111    0.8795 H   0  0  0  0  0  0
  1  2  2  0  0  0
  1 10  1  0  0  0
  1 11  1  0  0  0
  2  3  1  0  0  0
  2 12  1  0  0  0
  3  8  2  0  0  0
  3  4  1  0  0  0
  4  5  1  0  0  0
  4  6  2  0  0  0
  5 13  1  0  0  0
  5 14  1  0  0  0
  5 15  1  0  0  0
  6  7  1  0  0  0
  7  8  1  0  0  0
  8  9  1  0  0  0
  9 16  1  0  0  0
  9 17  1  0  0  0
  9 18  1  0  0  0
M  END
> <s_m_entry_id>
886

> <s_m_entry_name>
Spot_Xplore.std.19

> <s_m_Source_Path>
/Volumes/cluster/ddu/2448959/Work/2023/01_Fragment_screening_lib/1_Library_Construction/Work/SpotX/Ph4_Hypo_JC2

> <s_m_Source_File>
SpotX.maegz

> <i_m_Source_File_Index>
20

> <s_m_job_name>
ligprep_SpotXplore

> <i_lp_mmshare_version>
52144

> <s_epik_input>
W0NIMl09W0NIXWMxYyhbQ0gzXSlub2MxW0NIM10=

> <s_epik_cmdline>
J2VwaWtfcHl0aG9uJywgJy1waHQnLCAnMS4wJywgJy1waCcsICc3LjAnLCAnLXRuJywgJzgnLCAnLW1hJywgJzIwMCcsICctaW1hZScsICc8aW5maWxlLm1hZT4nLCAnLW9tYWUnLCAnPG91dGZpbGUubWFlPic=

> <r_lp_tautomer_probability>
1

> <r_epik_Ionization_Penalty>
  0.0000

> <r_epik_Ionization_Penalty_Charging>
  0.0000

> <r_epik_Ionization_Penalty_Neutral>
  0.0000

> <r_epik_State_Penalty>
  0.0000

> <r_epik_Charging_Adjusted_Penalty>
0

> <i_epik_Tot_Q>
0

> <i_epik_Tot_abs_Q>
0

> <i_f3d_flags>
0

> <s_lp_Force_Field>
OPLS_2005

> <r_lp_Energy>
3.01146

> <b_lp_Chiralities_Consistent>
1

> <s_lp_Variant>
mol_ID_19-1

> <s_m_subgroup_title>
ligprep_SpotXplore-out1

> <s_m_subgroupid>
ligprep_SpotXplore-out1

> <b_m_subgroup_collapsed>
0

$$$$
mol_ID_20
                    3D
 Schrodinger Suite 2020-4.
 11 11  0  0  1  0            999 V2000
    2.7206    1.2322   -0.0156 Cl  0  0  0  0  0  0
    1.1962    2.0400    0.0012 C   0  0  0  0  0  0
    1.1314    3.4468    0.0096 C   0  0  0  0  0  0
   -0.1388    4.0570    0.0232 C   0  0  0  0  0  0
   -1.2963    3.3607    0.0286 N   0  0  0  0  0  0
   -1.2225    2.0119    0.0204 C   0  0  0  0  0  0
   -0.0043    1.3035    0.0067 C   0  0  0  0  0  0
    2.0309    4.0447    0.0057 H   0  0  0  0  0  0
   -0.2272    5.1332    0.0300 H   0  0  0  0  0  0
   -2.1627    1.4807    0.0250 H   0  0  0  0  0  0
    0.0060    0.2235    0.0005 H   0  0  0  0  0  0
  1  2  1  0  0  0
  2  7  1  0  0  0
  2  3  2  0  0  0
  3  4  1  0  0  0
  3  8  1  0  0  0
  4  5  2  0  0  0
  4  9  1  0  0  0
  5  6  1  0  0  0
  6  7  2  0  0  0
  6 10  1  0  0  0
  7 11  1  0  0  0
M  END
> <s_m_entry_id>
887

> <s_m_entry_name>
Spot_Xplore.std.20

> <s_m_Source_Path>
/Volumes/cluster/ddu/2448959/Work/2023/01_Fragment_screening_lib/1_Library_Construction/Work/SpotX/Ph4_Hypo_JC2

> <s_m_Source_File>
SpotX.maegz

> <i_m_Source_File_Index>
21

> <s_m_job_name>
ligprep_SpotXplore

> <i_lp_mmshare_version>
52144

> <s_epik_input>
Q2xjMVtjSF1bY0hdbltjSF1bY0hdMQ==

> <s_epik_cmdline>
J2VwaWtfcHl0aG9uJywgJy1waHQnLCAnMS4wJywgJy1waCcsICc3LjAnLCAnLXRuJywgJzgnLCAnLW1hJywgJzIwMCcsICctaW1hZScsICc8aW5maWxlLm1hZT4nLCAnLW9tYWUnLCAnPG91dGZpbGUubWFlPic=

> <r_lp_tautomer_probability>
1

> <r_epik_Ionization_Penalty>
  0.0008

> <r_epik_Ionization_Penalty_Charging>
  0.0000

> <r_epik_Ionization_Penalty_Neutral>
  0.0008

> <r_epik_State_Penalty>
  0.0000

> <r_epik_Charging_Adjusted_Penalty>
0

> <i_epik_Tot_Q>
0

> <i_epik_Tot_abs_Q>
0

> <i_f3d_flags>
0

> <s_lp_Force_Field>
OPLS_2005

> <r_lp_Energy>
0.992083

> <b_lp_Chiralities_Consistent>
1

> <s_lp_Variant>
mol_ID_20-1

> <s_m_subgroup_title>
ligprep_SpotXplore-out1

> <s_m_subgroupid>
ligprep_SpotXplore-out1

> <b_m_subgroup_collapsed>
0

$$$$
mol_ID_21
                    3D
 Schrodinger Suite 2020-4.
 15 15  0  0  1  0            999 V2000
   -0.7424    1.1417    0.0000 C   0  0  0  0  0  0
    0.0395    0.0486    0.0000 C   0  0  0  0  0  0
    1.5117    0.0427    0.0000 C   0  0  0  0  0  0
    2.1950   -1.1935   -0.0000 C   0  0  0  0  0  0
    3.6034   -1.1951   -0.0000 C   0  0  0  0  0  0
    4.2827    0.0373    0.0000 C   0  0  0  0  0  0
    3.5181    1.2196    0.0000 C   0  0  0  0  0  0
    2.1678    1.2279    0.0000 N   0  0  0  0  0  0
   -0.3292    2.1398   -0.0000 H   0  0  0  0  0  0
   -1.8184    1.0483    0.0000 H   0  0  0  0  0  0
   -0.4421   -0.9185    0.0000 H   0  0  0  0  0  0
    1.6519   -2.1273   -0.0000 H   0  0  0  0  0  0
    4.1521   -2.1253   -0.0000 H   0  0  0  0  0  0
    5.3620    0.0757   -0.0000 H   0  0  0  0  0  0
    4.0033    2.1844    0.0000 H   0  0  0  0  0  0
  1  2  2  0  0  0
  1  9  1  0  0  0
  1 10  1  0  0  0
  2  3  1  0  0  0
  2 11  1  0  0  0
  3  8  1  0  0  0
  3  4  2  0  0  0
  4  5  1  0  0  0
  4 12  1  0  0  0
  5  6  2  0  0  0
  5 13  1  0  0  0
  6  7  1  0  0  0
  6 14  1  0  0  0
  7  8  2  0  0  0
  7 15  1  0  0  0
M  END
> <s_m_entry_id>
888

> <s_m_entry_name>
Spot_Xplore.std.21

> <s_m_Source_Path>
/Volumes/cluster/ddu/2448959/Work/2023/01_Fragment_screening_lib/1_Library_Construction/Work/SpotX/Ph4_Hypo_JC2

> <s_m_Source_File>
SpotX.maegz

> <i_m_Source_File_Index>
22

> <s_m_job_name>
ligprep_SpotXplore

> <i_lp_mmshare_version>
52144

> <s_epik_input>
W0NIMl09W0NIXWMxW2NIXVtjSF1bY0hdW2NIXW4x

> <s_epik_cmdline>
J2VwaWtfcHl0aG9uJywgJy1waHQnLCAnMS4wJywgJy1waCcsICc3LjAnLCAnLXRuJywgJzgnLCAnLW1hJywgJzIwMCcsICctaW1hZScsICc8aW5maWxlLm1hZT4nLCAnLW9tYWUnLCAnPG91dGZpbGUubWFlPic=

> <r_epik_Ionization_Penalty>
  0.0081

> <r_epik_Ionization_Penalty_Charging>
  0.0000

> <r_epik_Ionization_Penalty_Neutral>
  0.0081

> <r_epik_State_Penalty>
  0.0061

> <r_epik_Charging_Adjusted_Penalty>
0.00611035852386527

> <i_epik_Tot_Q>
0

> <i_epik_Tot_abs_Q>
0

> <i_f3d_flags>
0

> <s_lp_Force_Field>
OPLS_2005

> <r_lp_Energy>
3.259163

> <b_lp_Chiralities_Consistent>
1

> <s_lp_Variant>
mol_ID_21-1

> <s_m_subgroup_title>
ligprep_SpotXplore-out1

> <s_m_subgroupid>
ligprep_SpotXplore-out1

> <b_m_subgroup_collapsed>
0

$$$$
mol_ID_22
                    3D
 Schrodinger Suite 2020-4.
 10 10  0  0  1  0            999 V2000
   -2.8807    5.3068   -0.2654 Br  0  0  0  0  0  0
   -1.2228    6.2410   -0.2708 C   0  0  0  0  0  0
   -1.1638    7.6459   -0.3668 C   0  0  0  0  0  0
    0.0154    8.3058   -0.3704 N   0  0  0  0  0  0
    1.1219    7.5622   -0.2785 C   0  0  0  0  0  0
    1.1853    6.2308   -0.1832 N   0  0  0  0  0  0
    0.0100    5.5639   -0.1790 C   0  0  0  0  0  0
   -2.0620    8.2412   -0.4408 H   0  0  0  0  0  0
    2.0627    8.0923   -0.2816 H   0  0  0  0  0  0
    0.0543    4.4876   -0.1023 H   0  0  0  0  0  0
  1  2  1  0  0  0
  2  7  1  0  0  0
  2  3  2  0  0  0
  3  4  1  0  0  0
  3  8  1  0  0  0
  4  5  2  0  0  0
  5  6  1  0  0  0
  5  9  1  0  0  0
  6  7  2  0  0  0
  7 10  1  0  0  0
M  END
> <s_m_entry_id>
889

> <s_m_entry_name>
Spot_Xplore.std.22

> <s_m_Source_Path>
/Volumes/cluster/ddu/2448959/Work/2023/01_Fragment_screening_lib/1_Library_Construction/Work/SpotX/Ph4_Hypo_JC2

> <s_m_Source_File>
SpotX.maegz

> <i_m_Source_File_Index>
23

> <s_m_job_name>
ligprep_SpotXplore

> <i_lp_mmshare_version>
52144

> <s_epik_input>
QnJjMVtjSF1uW2NIXW5bY0hdMQ==

> <s_epik_cmdline>
J2VwaWtfcHl0aG9uJywgJy1waHQnLCAnMS4wJywgJy1waCcsICc3LjAnLCAnLXRuJywgJzgnLCAnLW1hJywgJzIwMCcsICctaW1hZScsICc8aW5maWxlLm1hZT4nLCAnLW9tYWUnLCAnPG91dGZpbGUubWFlPic=

> <r_lp_tautomer_probability>
1

> <r_epik_Ionization_Penalty>
  0.0000

> <r_epik_Ionization_Penalty_Charging>
  0.0000

> <r_epik_Ionization_Penalty_Neutral>
  0.0000

> <r_epik_State_Penalty>
  0.0000

> <r_epik_Charging_Adjusted_Penalty>
0

> <i_epik_Tot_Q>
0

> <i_epik_Tot_abs_Q>
0

> <i_f3d_flags>
0

> <s_lp_Force_Field>
OPLS_2005

> <r_lp_Energy>
-0.448957

> <b_lp_Chiralities_Consistent>
1

> <s_lp_Variant>
mol_ID_22-1

> <s_epik_Chemistry_Notes>
This compound contains an electron-poor aromatic ring that is susceptible to covalent hydrolysis at low pH, typically resulting in measured values for nitrogen ring protonation that are around two units higher than predicted values.

> <s_m_subgroup_title>
ligprep_SpotXplore-out1

> <s_m_subgroupid>
ligprep_SpotXplore-out1

> <b_m_subgroup_collapsed>
0

$$$$
mol_ID_23
                    3D
 Schrodinger Suite 2020-4.
 10 10  0  0  1  0            999 V2000
   -5.5488   -1.8675    2.3633 Cl  0  0  0  0  0  0
   -3.9323   -1.2659    2.3340 C   0  0  0  0  0  0
   -3.2950   -0.9226    3.5472 C   0  0  0  0  0  0
   -2.0300   -0.4467    3.5826 N   0  0  0  0  0  0
   -1.4018   -0.3148    2.3934 C   0  0  0  0  0  0
   -2.0341   -0.6564    1.1791 C   0  0  0  0  0  0
   -3.2991   -1.1321    1.1461 N   0  0  0  0  0  0
   -3.8026   -1.0303    4.4944 H   0  0  0  0  0  0
   -0.3908    0.0645    2.4102 H   0  0  0  0  0  0
   -1.5236   -0.5474    0.2336 H   0  0  0  0  0  0
  1  2  1  0  0  0
  2  7  1  0  0  0
  2  3  2  0  0  0
  3  4  1  0  0  0
  3  8  1  0  0  0
  4  5  2  0  0  0
  5  6  1  0  0  0
  5  9  1  0  0  0
  6  7  2  0  0  0
  6 10  1  0  0  0
M  END
> <s_m_entry_id>
890

> <s_m_entry_name>
Spot_Xplore.std.23

> <s_m_Source_Path>
/Volumes/cluster/ddu/2448959/Work/2023/01_Fragment_screening_lib/1_Library_Construction/Work/SpotX/Ph4_Hypo_JC2

> <s_m_Source_File>
SpotX.maegz

> <i_m_Source_File_Index>
24

> <s_m_job_name>
ligprep_SpotXplore

> <i_lp_mmshare_version>
52144

> <s_epik_input>
Q2xjMVtjSF1uW2NIXVtjSF1uMQ==

> <s_epik_cmdline>
J2VwaWtfcHl0aG9uJywgJy1waHQnLCAnMS4wJywgJy1waCcsICc3LjAnLCAnLXRuJywgJzgnLCAnLW1hJywgJzIwMCcsICctaW1hZScsICc8aW5maWxlLm1hZT4nLCAnLW9tYWUnLCAnPG91dGZpbGUubWFlPic=

> <r_lp_tautomer_probability>
1

> <r_epik_Ionization_Penalty>
  0.0000

> <r_epik_Ionization_Penalty_Charging>
  0.0000

> <r_epik_Ionization_Penalty_Neutral>
  0.0000

> <r_epik_State_Penalty>
  0.0000

> <r_epik_Charging_Adjusted_Penalty>
0

> <i_epik_Tot_Q>
0

> <i_epik_Tot_abs_Q>
0

> <i_f3d_flags>
0

> <s_lp_Force_Field>
OPLS_2005

> <r_lp_Energy>
9.49661

> <b_lp_Chiralities_Consistent>
1

> <s_lp_Variant>
mol_ID_23-1

> <s_m_subgroup_title>
ligprep_SpotXplore-out1

> <s_m_subgroupid>
ligprep_SpotXplore-out1

> <b_m_subgroup_collapsed>
0

$$$$
mol_ID_24
                    3D
 Schrodinger Suite 2020-4.
  9  9  0  0  1  0            999 V2000
    5.1967    1.8729    1.5928 I   0  0  0  0  0  0
    4.7382   -0.0976    2.1204 C   0  0  0  0  0  0
    5.0229   -0.6013    3.3126 N   0  0  0  0  0  0
    4.5489   -1.9137    3.2204 C   0  0  0  0  0  0
    4.0002   -2.1369    1.9733 C   0  0  0  0  0  0
    4.1372   -0.9437    1.2837 N   0  0  0  0  0  0
    4.6389   -2.5933    4.0551 H   0  0  0  0  0  0
    3.5418   -3.0125    1.5377 H   0  0  0  0  0  0
    3.8418   -0.7511    0.3373 H   0  0  0  0  0  0
  1  2  1  0  0  0
  2  6  1  0  0  0
  2  3  2  0  0  0
  3  4  1  0  0  0
  4  5  2  0  0  0
  4  7  1  0  0  0
  5  6  1  0  0  0
  5  8  1  0  0  0
  6  9  1  0  0  0
M  END
> <s_m_entry_id>
891

> <s_m_entry_name>
Spot_Xplore.std.24

> <s_m_Source_Path>
/Volumes/cluster/ddu/2448959/Work/2023/01_Fragment_screening_lib/1_Library_Construction/Work/SpotX/Ph4_Hypo_JC2

> <s_m_Source_File>
SpotX.maegz

> <i_m_Source_File_Index>
25

> <s_m_job_name>
ligprep_SpotXplore

> <i_lp_mmshare_version>
52144

> <s_epik_input>
SWMxbltjSF1bY0hdW25IXTE=

> <s_epik_cmdline>
J2VwaWtfcHl0aG9uJywgJy1waHQnLCAnMS4wJywgJy1waCcsICc3LjAnLCAnLXRuJywgJzgnLCAnLW1hJywgJzIwMCcsICctaW1hZScsICc8aW5maWxlLm1hZT4nLCAnLW9tYWUnLCAnPG91dGZpbGUubWFlPic=

> <r_lp_tautomer_probability>
1

> <r_epik_Ionization_Penalty>
  0.0008

> <r_epik_Ionization_Penalty_Charging>
  0.0008

> <r_epik_Ionization_Penalty_Neutral>
  0.0000

> <r_epik_State_Penalty>
  0.0000

> <r_epik_Charging_Adjusted_Penalty>
0.000800487423397591

> <i_epik_Tot_Q>
0

> <i_epik_Tot_abs_Q>
0

> <i_f3d_flags>
0

> <s_lp_Force_Field>
OPLS_2005

> <r_lp_Energy>
3.73253

> <b_lp_Chiralities_Consistent>
1

> <s_lp_Variant>
mol_ID_24-1

> <s_m_subgroup_title>
ligprep_SpotXplore-out1

> <s_m_subgroupid>
ligprep_SpotXplore-out1

> <b_m_subgroup_collapsed>
0

$$$$
mol_ID_25
                    3D
 Schrodinger Suite 2020-4.
  9  9  0  0  1  0            999 V2000
    1.7253   -4.3350    2.3513 Br  0  0  0  0  0  0
    0.7070   -4.9912    0.8844 C   0  0  0  0  0  0
    0.5040   -6.2987    0.5627 C   0  0  0  0  0  0
   -0.3150   -6.1961   -0.6015 C   0  0  0  0  0  0
   -0.5808   -4.9393   -0.9489 N   0  0  0  0  0  0
    0.0567   -4.1954   -0.0222 N   0  0  0  0  0  0
    0.8746   -7.1776    1.0688 H   0  0  0  0  0  0
   -0.7237   -6.9943   -1.2034 H   0  0  0  0  0  0
    0.0355   -3.1856   -0.0275 H   0  0  0  0  0  0
  1  2  1  0  0  0
  2  6  1  0  0  0
  2  3  2  0  0  0
  3  4  1  0  0  0
  3  7  1  0  0  0
  4  5  2  0  0  0
  4  8  1  0  0  0
  5  6  1  0  0  0
  6  9  1  0  0  0
M  END
> <s_m_entry_id>
892

> <s_m_entry_name>
Spot_Xplore.std.25

> <s_m_Source_Path>
/Volumes/cluster/ddu/2448959/Work/2023/01_Fragment_screening_lib/1_Library_Construction/Work/SpotX/Ph4_Hypo_JC2

> <s_m_Source_File>
SpotX.maegz

> <i_m_Source_File_Index>
26

> <s_m_job_name>
ligprep_SpotXplore

> <i_lp_mmshare_version>
52144

> <s_epik_input>
QnJjMVtjSF1bY0hdbltuSF0x

> <s_epik_cmdline>
J2VwaWtfcHl0aG9uJywgJy1waHQnLCAnMS4wJywgJy1waCcsICc3LjAnLCAnLXRuJywgJzgnLCAnLW1hJywgJzIwMCcsICctaW1hZScsICc8aW5maWxlLm1hZT4nLCAnLW9tYWUnLCAnPG91dGZpbGUubWFlPic=

> <r_lp_tautomer_probability>
0.5

> <r_epik_Ionization_Penalty>
  0.0000

> <r_epik_Ionization_Penalty_Charging>
  0.0000

> <r_epik_Ionization_Penalty_Neutral>
  0.0000

> <r_epik_State_Penalty>
  0.4107

> <r_epik_Charging_Adjusted_Penalty>
0.410679838952604

> <i_epik_Tot_Q>
0

> <i_epik_Tot_abs_Q>
0

> <i_f3d_flags>
0

> <s_lp_Force_Field>
OPLS_2005

> <r_lp_Energy>
2.421064

> <b_lp_Chiralities_Consistent>
1

> <s_lp_Variant>
mol_ID_25-1

> <s_m_subgroup_title>
ligprep_SpotXplore-out1

> <s_m_subgroupid>
ligprep_SpotXplore-out1

> <b_m_subgroup_collapsed>
0

$$$$
mol_ID_25
                    3D
 Schrodinger Suite 2020-4.
  9  9  0  0  1  0            999 V2000
    0.6527   -2.0701   -4.8265 Br  0  0  0  0  0  0
    1.0082   -1.2945   -3.1259 C   0  0  0  0  0  0
    2.3128   -0.9800   -2.6556 C   0  0  0  0  0  0
    2.0682   -0.4569   -1.4169 C   0  0  0  0  0  0
    0.7016   -0.4891   -1.2318 N   0  0  0  0  0  0
    0.0330   -1.0055   -2.2827 N   0  0  0  0  0  0
    3.2663   -1.1152   -3.1441 H   0  0  0  0  0  0
    2.7393   -0.0708   -0.6638 H   0  0  0  0  0  0
    0.2192   -0.1664   -0.4050 H   0  0  0  0  0  0
  1  2  1  0  0  0
  2  6  2  0  0  0
  2  3  1  0  0  0
  3  4  2  0  0  0
  3  7  1  0  0  0
  4  5  1  0  0  0
  4  8  1  0  0  0
  5  6  1  0  0  0
  5  9  1  0  0  0
M  END
> <s_m_entry_id>
893

> <s_m_entry_name>
Spot_Xplore.std.25

> <s_m_Source_Path>
/Volumes/cluster/ddu/2448959/Work/2023/01_Fragment_screening_lib/1_Library_Construction/Work/SpotX/Ph4_Hypo_JC2

> <s_m_Source_File>
SpotX.maegz

> <i_m_Source_File_Index>
27

> <s_m_job_name>
ligprep_SpotXplore

> <i_lp_mmshare_version>
52144

> <s_epik_input>
QnJjMVtjSF1bY0hdbltuSF0x

> <s_epik_cmdline>
J2VwaWtfcHl0aG9uJywgJy1waHQnLCAnMS4wJywgJy1waCcsICc3LjAnLCAnLXRuJywgJzgnLCAnLW1hJywgJzIwMCcsICctaW1hZScsICc8aW5maWxlLm1hZT4nLCAnLW9tYWUnLCAnPG91dGZpbGUubWFlPic=

> <r_lp_tautomer_probability>
0.5

> <r_epik_Ionization_Penalty>
  0.0000

> <r_epik_Ionization_Penalty_Charging>
  0.0000

> <r_epik_Ionization_Penalty_Neutral>
  0.0000

> <r_epik_State_Penalty>
  0.4107

> <r_epik_Charging_Adjusted_Penalty>
0.410679838952604

> <i_epik_Tot_Q>
0

> <i_epik_Tot_abs_Q>
0

> <i_f3d_flags>
0

> <s_lp_Force_Field>
OPLS_2005

> <r_lp_Energy>
1.180519

> <b_lp_Chiralities_Consistent>
1

> <s_lp_Variant>
mol_ID_25-2

> <s_m_subgroup_title>
ligprep_SpotXplore-out1

> <s_m_subgroupid>
ligprep_SpotXplore-out1

> <b_m_subgroup_collapsed>
0

$$$$
mol_ID_26
                    3D
 Schrodinger Suite 2020-4.
  8  8  0  0  1  0            999 V2000
   -0.1256   -5.8480    0.3215 I   0  0  0  0  0  0
    0.4122   -4.0778   -0.6525 C   0  0  0  0  0  0
    0.1200   -2.8785   -0.1608 N   0  0  0  0  0  0
    0.6467   -2.0018   -1.1000 C   0  0  0  0  0  0
    1.2263   -2.7380   -2.1040 C   0  0  0  0  0  0
    1.0843   -4.0730   -1.8317 O   0  0  0  0  0  0
    0.5691   -0.9310   -0.9823 H   0  0  0  0  0  0
    1.7442   -2.4835   -3.0170 H   0  0  0  0  0  0
  1  2  1  0  0  0
  2  6  1  0  0  0
  2  3  2  0  0  0
  3  4  1  0  0  0
  4  5  2  0  0  0
  4  7  1  0  0  0
  5  6  1  0  0  0
  5  8  1  0  0  0
M  END
> <s_m_entry_id>
894

> <s_m_entry_name>
Spot_Xplore.std.26

> <s_m_Source_Path>
/Volumes/cluster/ddu/2448959/Work/2023/01_Fragment_screening_lib/1_Library_Construction/Work/SpotX/Ph4_Hypo_JC2

> <s_m_Source_File>
SpotX.maegz

> <i_m_Source_File_Index>
28

> <s_m_job_name>
ligprep_SpotXplore

> <i_lp_mmshare_version>
52144

> <s_epik_input>
SWMxbltjSF1bY0hdbzE=

> <s_epik_cmdline>
J2VwaWtfcHl0aG9uJywgJy1waHQnLCAnMS4wJywgJy1waCcsICc3LjAnLCAnLXRuJywgJzgnLCAnLW1hJywgJzIwMCcsICctaW1hZScsICc8aW5maWxlLm1hZT4nLCAnLW9tYWUnLCAnPG91dGZpbGUubWFlPic=

> <r_lp_tautomer_probability>
1

> <r_epik_Ionization_Penalty>
  0.0000

> <r_epik_Ionization_Penalty_Charging>
  0.0000

> <r_epik_Ionization_Penalty_Neutral>
  0.0000

> <r_epik_State_Penalty>
  0.0000

> <r_epik_Charging_Adjusted_Penalty>
0

> <i_epik_Tot_Q>
0

> <i_epik_Tot_abs_Q>
0

> <i_f3d_flags>
0

> <s_lp_Force_Field>
OPLS_2005

> <r_lp_Energy>
2.381727

> <b_lp_Chiralities_Consistent>
1

> <s_lp_Variant>
mol_ID_26-1

> <s_m_subgroup_title>
ligprep_SpotXplore-out1

> <s_m_subgroupid>
ligprep_SpotXplore-out1

> <b_m_subgroup_collapsed>
0

$$$$
mol_ID_27
                    3D
 Schrodinger Suite 2020-4.
 13 13  0  0  1  0            999 V2000
   -1.2042    0.0022   -0.0003 C   0  0  0  0  0  0
    0.0170   -0.0035    0.0001 C   0  0  0  0  0  0
    1.4702    0.0037    0.0000 C   0  0  0  0  0  0
    2.1858    1.2185   -0.0000 C   0  0  0  0  0  0
    3.5936    1.1751    0.0000 C   0  0  0  0  0  0
    4.2258   -0.0844   -0.0000 C   0  0  0  0  0  0
    3.5500   -1.2539    0.0000 N   0  0  0  0  0  0
    2.2000   -1.2041   -0.0000 C   0  0  0  0  0  0
   -2.2711    0.0081    0.0020 H   0  0  0  0  0  0
    1.6704    2.1681    0.0000 H   0  0  0  0  0  0
    4.1751    2.0852   -0.0000 H   0  0  0  0  0  0
    5.3034   -0.1538   -0.0000 H   0  0  0  0  0  0
    1.6925   -2.1581    0.0000 H   0  0  0  0  0  0
  1  2  3  0  0  0
  1  9  1  0  0  0
  2  3  1  0  0  0
  3  8  1  0  0  0
  3  4  2  0  0  0
  4  5  1  0  0  0
  4 10  1  0  0  0
  5  6  2  0  0  0
  5 11  1  0  0  0
  6  7  1  0  0  0
  6 12  1  0  0  0
  7  8  2  0  0  0
  8 13  1  0  0  0
M  END
> <s_m_entry_id>
895

> <s_m_entry_name>
Spot_Xplore.std.27

> <s_m_Source_Path>
/Volumes/cluster/ddu/2448959/Work/2023/01_Fragment_screening_lib/1_Library_Construction/Work/SpotX/Ph4_Hypo_JC2

> <s_m_Source_File>
SpotX.maegz

> <i_m_Source_File_Index>
29

> <s_m_job_name>
ligprep_SpotXplore

> <i_lp_mmshare_version>
52144

> <s_epik_input>
W0NIXSNDYzFbY0hdW2NIXVtjSF1uW2NIXTE=

> <s_epik_cmdline>
J2VwaWtfcHl0aG9uJywgJy1waHQnLCAnMS4wJywgJy1waCcsICc3LjAnLCAnLXRuJywgJzgnLCAnLW1hJywgJzIwMCcsICctaW1hZScsICc8aW5maWxlLm1hZT4nLCAnLW9tYWUnLCAnPG91dGZpbGUubWFlPic=

> <r_lp_tautomer_probability>
1

> <r_epik_Ionization_Penalty>
  0.0008

> <r_epik_Ionization_Penalty_Charging>
  0.0000

> <r_epik_Ionization_Penalty_Neutral>
  0.0008

> <r_epik_State_Penalty>
  0.0000

> <r_epik_Charging_Adjusted_Penalty>
0

> <i_epik_Tot_Q>
0

> <i_epik_Tot_abs_Q>
0

> <i_f3d_flags>
0

> <s_lp_Force_Field>
OPLS_2005

> <r_lp_Energy>
3.10933

> <b_lp_Chiralities_Consistent>
1

> <s_lp_Variant>
mol_ID_27-1

> <s_m_subgroup_title>
ligprep_SpotXplore-out1

> <s_m_subgroupid>
ligprep_SpotXplore-out1

> <b_m_subgroup_collapsed>
0

$$$$
mol_ID_28
                    3D
 Schrodinger Suite 2020-4.
 11 11  0  0  1  0            999 V2000
   -1.1234    0.0007   -0.0000 N   0  0  0  0  0  0
    0.0339   -0.0040   -0.0000 C   0  0  0  0  0  0
    1.4867   -0.0088    0.0000 C   0  0  0  0  0  0
    2.2003    1.2092    0.0000 C   0  0  0  0  0  0
    3.6065    1.1119    0.0000 C   0  0  0  0  0  0
    4.2362   -0.0827    0.0000 N   0  0  0  0  0  0
    3.4618   -1.1705    0.0000 C   0  0  0  0  0  0
    2.1266   -1.1996   -0.0000 N   0  0  0  0  0  0
    1.7016    2.1676    0.0000 H   0  0  0  0  0  0
    4.2278    1.9954    0.0000 H   0  0  0  0  0  0
    3.9669   -2.1249   -0.0000 H   0  0  0  0  0  0
  1  2  3  0  0  0
  2  3  1  0  0  0
  3  8  1  0  0  0
  3  4  2  0  0  0
  4  5  1  0  0  0
  4  9  1  0  0  0
  5  6  2  0  0  0
  5 10  1  0  0  0
  6  7  1  0  0  0
  7  8  2  0  0  0
  7 11  1  0  0  0
M  END
> <s_m_entry_id>
896

> <s_m_entry_name>
Spot_Xplore.std.28

> <s_m_Source_Path>
/Volumes/cluster/ddu/2448959/Work/2023/01_Fragment_screening_lib/1_Library_Construction/Work/SpotX/Ph4_Hypo_JC2

> <s_m_Source_File>
SpotX.maegz

> <i_m_Source_File_Index>
30

> <s_m_job_name>
ligprep_SpotXplore

> <i_lp_mmshare_version>
52144

> <s_epik_input>
TiNDYzFbY0hdW2NIXW5bY0hdbjE=

> <s_epik_cmdline>
J2VwaWtfcHl0aG9uJywgJy1waHQnLCAnMS4wJywgJy1waCcsICc3LjAnLCAnLXRuJywgJzgnLCAnLW1hJywgJzIwMCcsICctaW1hZScsICc8aW5maWxlLm1hZT4nLCAnLW9tYWUnLCAnPG91dGZpbGUubWFlPic=

> <r_lp_tautomer_probability>
1

> <r_epik_Ionization_Penalty>
  0.0000

> <r_epik_Ionization_Penalty_Charging>
  0.0000

> <r_epik_Ionization_Penalty_Neutral>
  0.0000

> <r_epik_State_Penalty>
  0.0000

> <r_epik_Charging_Adjusted_Penalty>
0

> <i_epik_Tot_Q>
0

> <i_epik_Tot_abs_Q>
0

> <i_f3d_flags>
0

> <s_lp_Force_Field>
OPLS_2005

> <r_lp_Energy>
-2.402885

> <b_lp_Chiralities_Consistent>
1

> <s_lp_Variant>
mol_ID_28-1

> <s_epik_Chemistry_Notes>
This compound contains an electron-poor aromatic ring that is susceptible to covalent hydrolysis at low pH, typically resulting in measured values for nitrogen ring protonation that are around two units higher than predicted values.

> <s_m_subgroup_title>
ligprep_SpotXplore-out1

> <s_m_subgroupid>
ligprep_SpotXplore-out1

> <b_m_subgroup_collapsed>
0

$$$$
mol_ID_29
                    3D
 Schrodinger Suite 2020-4.
 14 14  0  0  1  0            999 V2000
   -0.7426    1.1423    0.0000 C   0  0  0  0  0  0
    0.0411    0.0505    0.0000 C   0  0  0  0  0  0
    1.5128    0.0494    0.0000 C   0  0  0  0  0  0
    2.2169   -1.1774    0.0000 C   0  0  0  0  0  0
    3.5676   -1.2334    0.0000 N   0  0  0  0  0  0
    4.2211   -0.0511    0.0000 C   0  0  0  0  0  0
    3.5288    1.1774   -0.0000 C   0  0  0  0  0  0
    2.1784    1.2307   -0.0000 N   0  0  0  0  0  0
   -0.3309    2.1410   -0.0000 H   0  0  0  0  0  0
   -1.8185    1.0478    0.0000 H   0  0  0  0  0  0
   -0.4368   -0.9187    0.0000 H   0  0  0  0  0  0
    1.6951   -2.1232    0.0000 H   0  0  0  0  0  0
    5.3006   -0.0843    0.0000 H   0  0  0  0  0  0
    4.0594    2.1179   -0.0000 H   0  0  0  0  0  0
  1  2  2  0  0  0
  1  9  1  0  0  0
  1 10  1  0  0  0
  2  3  1  0  0  0
  2 11  1  0  0  0
  3  8  1  0  0  0
  3  4  2  0  0  0
  4  5  1  0  0  0
  4 12  1  0  0  0
  5  6  2  0  0  0
  6  7  1  0  0  0
  6 13  1  0  0  0
  7  8  2  0  0  0
  7 14  1  0  0  0
M  END
> <s_m_entry_id>
897

> <s_m_entry_name>
Spot_Xplore.std.29

> <s_m_Source_Path>
/Volumes/cluster/ddu/2448959/Work/2023/01_Fragment_screening_lib/1_Library_Construction/Work/SpotX/Ph4_Hypo_JC2

> <s_m_Source_File>
SpotX.maegz

> <i_m_Source_File_Index>
31

> <s_m_job_name>
ligprep_SpotXplore

> <i_lp_mmshare_version>
52144

> <s_epik_input>
W0NIMl09W0NIXWMxW2NIXW5bY0hdW2NIXW4x

> <s_epik_cmdline>
J2VwaWtfcHl0aG9uJywgJy1waHQnLCAnMS4wJywgJy1waCcsICc3LjAnLCAnLXRuJywgJzgnLCAnLW1hJywgJzIwMCcsICctaW1hZScsICc8aW5maWxlLm1hZT4nLCAnLW9tYWUnLCAnPG91dGZpbGUubWFlPic=

> <r_lp_tautomer_probability>
1

> <r_epik_Ionization_Penalty>
  0.0000

> <r_epik_Ionization_Penalty_Charging>
  0.0000

> <r_epik_Ionization_Penalty_Neutral>
  0.0000

> <r_epik_State_Penalty>
  0.0000

> <r_epik_Charging_Adjusted_Penalty>
0

> <i_epik_Tot_Q>
0

> <i_epik_Tot_abs_Q>
0

> <i_f3d_flags>
0

> <s_lp_Force_Field>
OPLS_2005

> <r_lp_Energy>
10.815264

> <b_lp_Chiralities_Consistent>
1

> <s_lp_Variant>
mol_ID_29-1

> <s_m_subgroup_title>
ligprep_SpotXplore-out1

> <s_m_subgroupid>
ligprep_SpotXplore-out1

> <b_m_subgroup_collapsed>
0

$$$$
mol_ID_30
                    3D
 Schrodinger Suite 2020-4.
 10 10  0  0  1  0            999 V2000
    1.0964   -2.7171   -0.0230 I   0  0  0  0  0  0
    1.1434   -0.6269   -0.0120 C   0  0  0  0  0  0
   -0.0310    0.0127    0.0035 N   0  0  0  0  0  0
   -0.0068    1.3629    0.0107 C   0  0  0  0  0  0
    1.2043    2.0812    0.0023 C   0  0  0  0  0  0
    2.3819    1.3094   -0.0140 C   0  0  0  0  0  0
    2.3453   -0.0406   -0.0211 N   0  0  0  0  0  0
   -0.9590    1.8723    0.0233 H   0  0  0  0  0  0
    1.2285    3.1608    0.0080 H   0  0  0  0  0  0
    3.3559    1.7756   -0.0214 H   0  0  0  0  0  0
  1  2  1  0  0  0
  2  7  1  0  0  0
  2  3  2  0  0  0
  3  4  1  0  0  0
  4  5  2  0  0  0
  4  8  1  0  0  0
  5  6  1  0  0  0
  5  9  1  0  0  0
  6  7  2  0  0  0
  6 10  1  0  0  0
M  END
> <s_m_entry_id>
898

> <s_m_entry_name>
Spot_Xplore.std.30

> <s_m_Source_Path>
/Volumes/cluster/ddu/2448959/Work/2023/01_Fragment_screening_lib/1_Library_Construction/Work/SpotX/Ph4_Hypo_JC2

> <s_m_Source_File>
SpotX.maegz

> <i_m_Source_File_Index>
32

> <s_m_job_name>
ligprep_SpotXplore

> <i_lp_mmshare_version>
52144

> <s_epik_input>
SWMxbltjSF1bY0hdW2NIXW4x

> <s_epik_cmdline>
J2VwaWtfcHl0aG9uJywgJy1waHQnLCAnMS4wJywgJy1waCcsICc3LjAnLCAnLXRuJywgJzgnLCAnLW1hJywgJzIwMCcsICctaW1hZScsICc8aW5maWxlLm1hZT4nLCAnLW9tYWUnLCAnPG91dGZpbGUubWFlPic=

> <r_lp_tautomer_probability>
1

> <r_epik_Ionization_Penalty>
  0.0000

> <r_epik_Ionization_Penalty_Charging>
  0.0000

> <r_epik_Ionization_Penalty_Neutral>
  0.0000

> <r_epik_State_Penalty>
  0.0000

> <r_epik_Charging_Adjusted_Penalty>
0

> <i_epik_Tot_Q>
0

> <i_epik_Tot_abs_Q>
0

> <i_f3d_flags>
0

> <s_lp_Force_Field>
OPLS_2005

> <r_lp_Energy>
-2.703361

> <b_lp_Chiralities_Consistent>
1

> <s_lp_Variant>
mol_ID_30-1

> <s_epik_Chemistry_Notes>
This compound contains an electron-poor aromatic ring that is susceptible to covalent hydrolysis at low pH, typically resulting in measured values for nitrogen ring protonation that are around two units higher than predicted values.

> <s_m_subgroup_title>
ligprep_SpotXplore-out1

> <s_m_subgroupid>
ligprep_SpotXplore-out1

> <b_m_subgroup_collapsed>
0

$$$$
mol_ID_31
                    3D
 Schrodinger Suite 2020-4.
 10 10  0  0  1  0            999 V2000
    1.1829   -2.5234   -0.0228 Br  0  0  0  0  0  0
    1.1385   -0.6212   -0.0119 C   0  0  0  0  0  0
    2.3510    0.1035   -0.0203 C   0  0  0  0  0  0
    2.3778    1.4552   -0.0132 N   0  0  0  0  0  0
    1.1808    2.0823    0.0024 C   0  0  0  0  0  0
   -0.0329    1.3627    0.0109 C   0  0  0  0  0  0
   -0.0571    0.0112    0.0037 N   0  0  0  0  0  0
    3.3044   -0.4038   -0.0328 H   0  0  0  0  0  0
    1.1905    3.1623    0.0083 H   0  0  0  0  0  0
   -0.9851    1.8719    0.0234 H   0  0  0  0  0  0
  1  2  1  0  0  0
  2  7  1  0  0  0
  2  3  2  0  0  0
  3  4  1  0  0  0
  3  8  1  0  0  0
  4  5  2  0  0  0
  5  6  1  0  0  0
  5  9  1  0  0  0
  6  7  2  0  0  0
  6 10  1  0  0  0
M  END
> <s_m_entry_id>
899

> <s_m_entry_name>
Spot_Xplore.std.31

> <s_m_Source_Path>
/Volumes/cluster/ddu/2448959/Work/2023/01_Fragment_screening_lib/1_Library_Construction/Work/SpotX/Ph4_Hypo_JC2

> <s_m_Source_File>
SpotX.maegz

> <i_m_Source_File_Index>
33

> <s_m_job_name>
ligprep_SpotXplore

> <i_lp_mmshare_version>
52144

> <s_epik_input>
QnJjMVtjSF1uW2NIXVtjSF1uMQ==

> <s_epik_cmdline>
J2VwaWtfcHl0aG9uJywgJy1waHQnLCAnMS4wJywgJy1waCcsICc3LjAnLCAnLXRuJywgJzgnLCAnLW1hJywgJzIwMCcsICctaW1hZScsICc8aW5maWxlLm1hZT4nLCAnLW9tYWUnLCAnPG91dGZpbGUubWFlPic=

> <r_lp_tautomer_probability>
1

> <r_epik_Ionization_Penalty>
  0.0000

> <r_epik_Ionization_Penalty_Charging>
  0.0000

> <r_epik_Ionization_Penalty_Neutral>
  0.0000

> <r_epik_State_Penalty>
  0.0000

> <r_epik_Charging_Adjusted_Penalty>
0

> <i_epik_Tot_Q>
0

> <i_epik_Tot_abs_Q>
0

> <i_f3d_flags>
0

> <s_lp_Force_Field>
OPLS_2005

> <r_lp_Energy>
9.444379

> <b_lp_Chiralities_Consistent>
1

> <s_lp_Variant>
mol_ID_31-1

> <s_m_subgroup_title>
ligprep_SpotXplore-out1

> <s_m_subgroupid>
ligprep_SpotXplore-out1

> <b_m_subgroup_collapsed>
0

$$$$
mol_ID_32
                    3D
 Schrodinger Suite 2020-4.
  9  9  0  0  1  0            999 V2000
    8.1596   -3.1809    5.9531 I   0  0  0  0  0  0
    6.7842   -2.4196    4.5751 C   0  0  0  0  0  0
    6.9004   -2.4862    3.2071 C   0  0  0  0  0  0
    5.7606   -1.8543    2.7376 N   0  0  0  0  0  0
    5.0510   -1.4587    3.8029 C   0  0  0  0  0  0
    5.6150   -1.7700    4.9656 N   0  0  0  0  0  0
    7.6565   -2.9069    2.5609 H   0  0  0  0  0  0
    5.5093   -1.7163    1.7691 H   0  0  0  0  0  0
    4.1091   -0.9361    3.7250 H   0  0  0  0  0  0
  1  2  1  0  0  0
  2  6  1  0  0  0
  2  3  2  0  0  0
  3  4  1  0  0  0
  3  7  1  0  0  0
  4  5  1  0  0  0
  4  8  1  0  0  0
  5  6  2  0  0  0
  5  9  1  0  0  0
M  END
> <s_m_entry_id>
900

> <s_m_entry_name>
Spot_Xplore.std.32

> <s_m_Source_Path>
/Volumes/cluster/ddu/2448959/Work/2023/01_Fragment_screening_lib/1_Library_Construction/Work/SpotX/Ph4_Hypo_JC2

> <s_m_Source_File>
SpotX.maegz

> <i_m_Source_File_Index>
34

> <s_m_job_name>
ligprep_SpotXplore

> <i_lp_mmshare_version>
52144

> <s_epik_input>
SWMxW2NIXVtuSF1bY0hdbjE=

> <s_epik_cmdline>
J2VwaWtfcHl0aG9uJywgJy1waHQnLCAnMS4wJywgJy1waCcsICc3LjAnLCAnLXRuJywgJzgnLCAnLW1hJywgJzIwMCcsICctaW1hZScsICc8aW5maWxlLm1hZT4nLCAnLW9tYWUnLCAnPG91dGZpbGUubWFlPic=

> <r_lp_tautomer_probability>
0.499999999999999

> <r_epik_Ionization_Penalty>
  0.0016

> <r_epik_Ionization_Penalty_Charging>
  0.0016

> <r_epik_Ionization_Penalty_Neutral>
  0.0000

> <r_epik_State_Penalty>
  0.4107

> <r_epik_Charging_Adjusted_Penalty>
0.412279733747051

> <i_epik_Tot_Q>
0

> <i_epik_Tot_abs_Q>
0

> <i_f3d_flags>
0

> <s_lp_Force_Field>
OPLS_2005

> <r_lp_Energy>
3.879139

> <b_lp_Chiralities_Consistent>
1

> <s_lp_Variant>
mol_ID_32-1

> <s_m_subgroup_title>
ligprep_SpotXplore-out1

> <s_m_subgroupid>
ligprep_SpotXplore-out1

> <b_m_subgroup_collapsed>
0

$$$$
mol_ID_32
                    3D
 Schrodinger Suite 2020-4.
  9  9  0  0  1  0            999 V2000
    4.1863    0.6936   -0.0356 I   0  0  0  0  0  0
    2.0973    0.6114   -0.0149 C   0  0  0  0  0  0
    1.3017   -0.5086   -0.0131 C   0  0  0  0  0  0
   -0.0343   -0.0944    0.0028 N   0  0  0  0  0  0
    0.0259    1.2373    0.0097 C   0  0  0  0  0  0
    1.2743    1.7182   -0.0002 N   0  0  0  0  0  0
    1.5745   -1.5536   -0.0218 H   0  0  0  0  0  0
    1.5558    2.6880    0.0024 H   0  0  0  0  0  0
   -0.8507    1.8685    0.0222 H   0  0  0  0  0  0
  1  2  1  0  0  0
  2  3  2  0  0  0
  2  6  1  0  0  0
  3  7  1  0  0  0
  3  4  1  0  0  0
  4  5  2  0  0  0
  5  6  1  0  0  0
  5  9  1  0  0  0
  6  8  1  0  0  0
M  END
> <s_m_entry_id>
901

> <s_m_entry_name>
Spot_Xplore.std.32

> <s_m_Source_Path>
/Volumes/cluster/ddu/2448959/Work/2023/01_Fragment_screening_lib/1_Library_Construction/Work/SpotX/Ph4_Hypo_JC2

> <s_m_Source_File>
SpotX.maegz

> <i_m_Source_File_Index>
35

> <s_m_job_name>
ligprep_SpotXplore

> <i_lp_mmshare_version>
52144

> <s_epik_input>
SWMxW2NIXVtuSF1bY0hdbjE=

> <s_epik_cmdline>
J2VwaWtfcHl0aG9uJywgJy1waHQnLCAnMS4wJywgJy1waCcsICc3LjAnLCAnLXRuJywgJzgnLCAnLW1hJywgJzIwMCcsICctaW1hZScsICc8aW5maWxlLm1hZT4nLCAnLW9tYWUnLCAnPG91dGZpbGUubWFlPic=

> <r_lp_tautomer_probability>
0.499999999999999

> <r_epik_Ionization_Penalty>
  0.0048

> <r_epik_Ionization_Penalty_Charging>
  0.0047

> <r_epik_Ionization_Penalty_Neutral>
  0.0000

> <r_epik_State_Penalty>
  0.4107

> <r_epik_Charging_Adjusted_Penalty>
0.415389079044592

> <i_epik_Tot_Q>
0

> <i_epik_Tot_abs_Q>
0

> <i_f3d_flags>
0

> <s_lp_Force_Field>
OPLS_2005

> <r_lp_Energy>
5.023491

> <b_lp_Chiralities_Consistent>
1

> <s_lp_Variant>
mol_ID_32-2

> <s_m_subgroup_title>
ligprep_SpotXplore-out1

> <s_m_subgroupid>
ligprep_SpotXplore-out1

> <b_m_subgroup_collapsed>
0

$$$$
mol_ID_33
                    3D
 Schrodinger Suite 2020-4.
  9  9  0  0  1  0            999 V2000
    3.2135   13.6748    1.1616 I   0  0  0  0  0  0
    3.5663   11.9191    0.0830 C   0  0  0  0  0  0
    3.5131   11.7590   -1.3279 C   0  0  0  0  0  0
    3.7907   10.5115   -1.6810 N   0  0  0  0  0  0
    4.0198    9.8775   -0.5081 N   0  0  0  0  0  0
    3.8936   10.6983    0.5913 C   0  0  0  0  0  0
    3.2872   12.4904   -2.0897 H   0  0  0  0  0  0
    4.2583    8.8964   -0.4752 H   0  0  0  0  0  0
    4.0426   10.3532    1.6038 H   0  0  0  0  0  0
  1  2  1  0  0  0
  2  6  2  0  0  0
  2  3  1  0  0  0
  3  4  2  0  0  0
  3  7  1  0  0  0
  4  5  1  0  0  0
  5  6  1  0  0  0
  5  8  1  0  0  0
  6  9  1  0  0  0
M  END
> <s_m_entry_id>
902

> <s_m_entry_name>
Spot_Xplore.std.33

> <s_m_Source_Path>
/Volumes/cluster/ddu/2448959/Work/2023/01_Fragment_screening_lib/1_Library_Construction/Work/SpotX/Ph4_Hypo_JC2

> <s_m_Source_File>
SpotX.maegz

> <i_m_Source_File_Index>
36

> <s_m_job_name>
ligprep_SpotXplore

> <i_lp_mmshare_version>
52144

> <s_epik_input>
SWMxW2NIXW5bbkhdW2NIXTE=

> <s_epik_cmdline>
J2VwaWtfcHl0aG9uJywgJy1waHQnLCAnMS4wJywgJy1waCcsICc3LjAnLCAnLXRuJywgJzgnLCAnLW1hJywgJzIwMCcsICctaW1hZScsICc8aW5maWxlLm1hZT4nLCAnLW9tYWUnLCAnPG91dGZpbGUubWFlPic=

> <r_lp_tautomer_probability>
1

> <r_epik_Ionization_Penalty>
  0.0000

> <r_epik_Ionization_Penalty_Charging>
  0.0000

> <r_epik_Ionization_Penalty_Neutral>
  0.0000

> <r_epik_State_Penalty>
  0.0000

> <r_epik_Charging_Adjusted_Penalty>
0

> <i_epik_Tot_Q>
0

> <i_epik_Tot_abs_Q>
0

> <i_f3d_flags>
0

> <s_lp_Force_Field>
OPLS_2005

> <r_lp_Energy>
2.977782

> <b_lp_Chiralities_Consistent>
1

> <s_lp_Variant>
mol_ID_33-1

> <s_m_subgroup_title>
ligprep_SpotXplore-out1

> <s_m_subgroupid>
ligprep_SpotXplore-out1

> <b_m_subgroup_collapsed>
0

$$$$
mol_ID_34
                    3D
 Schrodinger Suite 2020-4.
  9  9  0  0  1  0            999 V2000
   -1.1141    0.0413   -0.0000 N   0  0  0  0  0  0
    0.0424    0.0028    0.0000 C   0  0  0  0  0  0
    1.4600   -0.0219    0.0000 C   0  0  0  0  0  0
    2.2973    1.0135   -0.0000 N   0  0  0  0  0  0
    3.5639    0.4461   -0.0000 C   0  0  0  0  0  0
    3.4203   -0.9172   -0.0000 C   0  0  0  0  0  0
    2.0870   -1.2291   -0.0000 O   0  0  0  0  0  0
    4.4591    1.0504   -0.0000 H   0  0  0  0  0  0
    4.1140   -1.7451   -0.0000 H   0  0  0  0  0  0
  1  2  3  0  0  0
  2  3  1  0  0  0
  3  7  1  0  0  0
  3  4  2  0  0  0
  4  5  1  0  0  0
  5  6  2  0  0  0
  5  8  1  0  0  0
  6  7  1  0  0  0
  6  9  1  0  0  0
M  END
> <s_m_entry_id>
903

> <s_m_entry_name>
Spot_Xplore.std.34

> <s_m_Source_Path>
/Volumes/cluster/ddu/2448959/Work/2023/01_Fragment_screening_lib/1_Library_Construction/Work/SpotX/Ph4_Hypo_JC2

> <s_m_Source_File>
SpotX.maegz

> <i_m_Source_File_Index>
37

> <s_m_job_name>
ligprep_SpotXplore

> <i_lp_mmshare_version>
52144

> <s_epik_input>
TiNDYzFuW2NIXVtjSF1vMQ==

> <s_epik_cmdline>
J2VwaWtfcHl0aG9uJywgJy1waHQnLCAnMS4wJywgJy1waCcsICc3LjAnLCAnLXRuJywgJzgnLCAnLW1hJywgJzIwMCcsICctaW1hZScsICc8aW5maWxlLm1hZT4nLCAnLW9tYWUnLCAnPG91dGZpbGUubWFlPic=

> <r_lp_tautomer_probability>
1

> <r_epik_Ionization_Penalty>
  0.0000

> <r_epik_Ionization_Penalty_Charging>
  0.0000

> <r_epik_Ionization_Penalty_Neutral>
  0.0000

> <r_epik_State_Penalty>
  0.0000

> <r_epik_Charging_Adjusted_Penalty>
0

> <i_epik_Tot_Q>
0

> <i_epik_Tot_abs_Q>
0

> <i_f3d_flags>
0

> <s_lp_Force_Field>
OPLS_2005

> <r_lp_Energy>
3.010177

> <b_lp_Chiralities_Consistent>
1

> <s_lp_Variant>
mol_ID_34-1

> <s_m_subgroup_title>
ligprep_SpotXplore-out1

> <s_m_subgroupid>
ligprep_SpotXplore-out1

> <b_m_subgroup_collapsed>
0

$$$$
mol_ID_35
                    3D
 Schrodinger Suite 2020-4.
 14 15  0  0  1  0            999 V2000
    5.4030   -1.9442   -5.7735 Cl  0  0  0  0  0  0
    4.1490   -1.5461   -4.6694 C   0  0  0  0  0  0
    2.8609   -1.4682   -5.0123 N   0  0  0  0  0  0
    2.1162   -1.1261   -3.8852 C   0  0  0  0  0  0
    0.7153   -0.9424   -3.8169 C   0  0  0  0  0  0
    0.0835   -0.5952   -2.6062 C   0  0  0  0  0  0
    0.8430   -0.4236   -1.4336 C   0  0  0  0  0  0
    2.2383   -0.5994   -1.4696 C   0  0  0  0  0  0
    2.8661   -0.9462   -2.6805 C   0  0  0  0  0  0
    4.5805   -1.2222   -2.9928 S   0  0  0  0  0  0
    0.1193   -1.0706   -4.7084 H   0  0  0  0  0  0
   -0.9878   -0.4601   -2.5779 H   0  0  0  0  0  0
    0.3549   -0.1574   -0.5075 H   0  0  0  0  0  0
    2.8249   -0.4687   -0.5724 H   0  0  0  0  0  0
  1  2  1  0  0  0
  2 10  1  0  0  0
  2  3  2  0  0  0
  3  4  1  0  0  0
  4  9  2  0  0  0
  4  5  1  0  0  0
  5  6  2  0  0  0
  5 11  1  0  0  0
  6  7  1  0  0  0
  6 12  1  0  0  0
  7  8  2  0  0  0
  7 13  1  0  0  0
  8  9  1  0  0  0
  8 14  1  0  0  0
  9 10  1  0  0  0
M  END
> <s_m_entry_id>
904

> <s_m_entry_name>
Spot_Xplore.std.35

> <s_m_Source_Path>
/Volumes/cluster/ddu/2448959/Work/2023/01_Fragment_screening_lib/1_Library_Construction/Work/SpotX/Ph4_Hypo_JC2

> <s_m_Source_File>
SpotX.maegz

> <i_m_Source_File_Index>
38

> <s_m_job_name>
ligprep_SpotXplore

> <i_lp_mmshare_version>
52144

> <s_epik_input>
Q2xjKG4xKXNjKGMxMilbY0hdW2NIXVtjSF1bY0hdMg==

> <s_epik_cmdline>
J2VwaWtfcHl0aG9uJywgJy1waHQnLCAnMS4wJywgJy1waCcsICc3LjAnLCAnLXRuJywgJzgnLCAnLW1hJywgJzIwMCcsICctaW1hZScsICc8aW5maWxlLm1hZT4nLCAnLW9tYWUnLCAnPG91dGZpbGUubWFlPic=

> <r_lp_tautomer_probability>
1

> <r_epik_Ionization_Penalty>
  0.0000

> <r_epik_Ionization_Penalty_Charging>
  0.0000

> <r_epik_Ionization_Penalty_Neutral>
  0.0000

> <r_epik_State_Penalty>
  0.0000

> <r_epik_Charging_Adjusted_Penalty>
0

> <i_epik_Tot_Q>
0

> <i_epik_Tot_abs_Q>
0

> <i_f3d_flags>
0

> <s_lp_Force_Field>
OPLS_2005

> <r_lp_Energy>
4.170573

> <b_lp_Chiralities_Consistent>
1

> <s_lp_Variant>
mol_ID_35-1

> <s_m_subgroup_title>
ligprep_SpotXplore-out1

> <s_m_subgroupid>
ligprep_SpotXplore-out1

> <b_m_subgroup_collapsed>
0

$$$$
mol_ID_36
                    3D
 Schrodinger Suite 2020-4.
 11 11  0  0  1  0            999 V2000
    8.9946    3.5700   -0.0537 Br  0  0  0  0  0  0
    7.9839    1.9576   -0.0575 C   0  0  0  0  0  0
    6.5761    1.9914   -0.0435 C   0  0  0  0  0  0
    5.8706    0.7724   -0.0470 C   0  0  0  0  0  0
    6.6079   -0.4289   -0.0643 C   0  0  0  0  0  0
    7.9581   -0.4710   -0.0778 N   0  0  0  0  0  0
    8.6266    0.7030   -0.0744 C   0  0  0  0  0  0
    6.0475    2.9330   -0.0304 H   0  0  0  0  0  0
    4.7906    0.7578   -0.0366 H   0  0  0  0  0  0
    6.0993   -1.3816   -0.0674 H   0  0  0  0  0  0
    9.7047    0.6394   -0.0854 H   0  0  0  0  0  0
  1  2  1  0  0  0
  2  7  1  0  0  0
  2  3  2  0  0  0
  3  4  1  0  0  0
  3  8  1  0  0  0
  4  5  2  0  0  0
  4  9  1  0  0  0
  5  6  1  0  0  0
  5 10  1  0  0  0
  6  7  2  0  0  0
  7 11  1  0  0  0
M  END
> <s_m_entry_id>
905

> <s_m_entry_name>
Spot_Xplore.std.36

> <s_m_Source_Path>
/Volumes/cluster/ddu/2448959/Work/2023/01_Fragment_screening_lib/1_Library_Construction/Work/SpotX/Ph4_Hypo_JC2

> <s_m_Source_File>
SpotX.maegz

> <i_m_Source_File_Index>
39

> <s_m_job_name>
ligprep_SpotXplore

> <i_lp_mmshare_version>
52144

> <s_epik_input>
QnJjMVtjSF1bY0hdW2NIXW5bY0hdMQ==

> <s_epik_cmdline>
J2VwaWtfcHl0aG9uJywgJy1waHQnLCAnMS4wJywgJy1waCcsICc3LjAnLCAnLXRuJywgJzgnLCAnLW1hJywgJzIwMCcsICctaW1hZScsICc8aW5maWxlLm1hZT4nLCAnLW9tYWUnLCAnPG91dGZpbGUubWFlPic=

> <r_lp_tautomer_probability>
1

> <r_epik_Ionization_Penalty>
  0.0001

> <r_epik_Ionization_Penalty_Charging>
  0.0000

> <r_epik_Ionization_Penalty_Neutral>
  0.0001

> <r_epik_State_Penalty>
  0.0000

> <r_epik_Charging_Adjusted_Penalty>
0

> <i_epik_Tot_Q>
0

> <i_epik_Tot_abs_Q>
0

> <i_f3d_flags>
0

> <s_lp_Force_Field>
OPLS_2005

> <r_lp_Energy>
3.254473

> <b_lp_Chiralities_Consistent>
1

> <s_lp_Variant>
mol_ID_36-1

> <s_m_subgroup_title>
ligprep_SpotXplore-out1

> <s_m_subgroupid>
ligprep_SpotXplore-out1

> <b_m_subgroup_collapsed>
0

$$$$
mol_ID_37
                    3D
 Schrodinger Suite 2020-4.
 15 15  0  0  1  0            999 V2000
   -0.7771    1.1240   -0.0000 C   0  0  0  0  0  0
    0.0238    0.0453    0.0000 C   0  0  0  0  0  0
    1.4963    0.0519    0.0000 C   0  0  0  0  0  0
    2.2590    1.2426    0.0000 C   0  0  0  0  0  0
    3.6652    1.1489    0.0000 C   0  0  0  0  0  0
    4.3320   -0.0244    0.0000 N   0  0  0  0  0  0
    3.6030   -1.1599    0.0000 C   0  0  0  0  0  0
    2.1938   -1.1751    0.0000 C   0  0  0  0  0  0
   -0.3922    2.1324   -0.0000 H   0  0  0  0  0  0
   -1.8507    1.0055   -0.0000 H   0  0  0  0  0  0
   -0.4455   -0.9281    0.0000 H   0  0  0  0  0  0
    1.7930    2.2158    0.0000 H   0  0  0  0  0  0
    4.2706    2.0431    0.0000 H   0  0  0  0  0  0
    4.1590   -2.0858   -0.0000 H   0  0  0  0  0  0
    1.6627   -2.1158   -0.0000 H   0  0  0  0  0  0
  1  2  2  0  0  0
  1  9  1  0  0  0
  1 10  1  0  0  0
  2  3  1  0  0  0
  2 11  1  0  0  0
  3  8  1  0  0  0
  3  4  2  0  0  0
  4  5  1  0  0  0
  4 12  1  0  0  0
  5  6  2  0  0  0
  5 13  1  0  0  0
  6  7  1  0  0  0
  7  8  2  0  0  0
  7 14  1  0  0  0
  8 15  1  0  0  0
M  END
> <s_m_entry_id>
906

> <s_m_entry_name>
Spot_Xplore.std.37

> <s_m_Source_Path>
/Volumes/cluster/ddu/2448959/Work/2023/01_Fragment_screening_lib/1_Library_Construction/Work/SpotX/Ph4_Hypo_JC2

> <s_m_Source_File>
SpotX.maegz

> <i_m_Source_File_Index>
40

> <s_m_job_name>
ligprep_SpotXplore

> <i_lp_mmshare_version>
52144

> <s_epik_input>
W0NIMl09W0NIXWMxW2NIXVtjSF1uW2NIXVtjSF0x

> <s_epik_cmdline>
J2VwaWtfcHl0aG9uJywgJy1waHQnLCAnMS4wJywgJy1waCcsICc3LjAnLCAnLXRuJywgJzgnLCAnLW1hJywgJzIwMCcsICctaW1hZScsICc8aW5maWxlLm1hZT4nLCAnLW9tYWUnLCAnPG91dGZpbGUubWFlPic=

> <r_epik_Ionization_Penalty>
  0.0171

> <r_epik_Ionization_Penalty_Charging>
  0.0000

> <r_epik_Ionization_Penalty_Neutral>
  0.0171

> <r_epik_State_Penalty>
  0.0135

> <r_epik_Charging_Adjusted_Penalty>
0.0135149371372

> <i_epik_Tot_Q>
0

> <i_epik_Tot_abs_Q>
0

> <i_f3d_flags>
0

> <s_lp_Force_Field>
OPLS_2005

> <r_lp_Energy>
3.543995

> <b_lp_Chiralities_Consistent>
1

> <s_lp_Variant>
mol_ID_37-1

> <s_m_subgroup_title>
ligprep_SpotXplore-out1

> <s_m_subgroupid>
ligprep_SpotXplore-out1

> <b_m_subgroup_collapsed>
0

$$$$
mol_ID_38
                    3D
 Schrodinger Suite 2020-4.
 10 10  0  0  1  0            999 V2000
    1.2384    4.1323    0.0113 I   0  0  0  0  0  0
    1.2027    2.0418    0.0009 C   0  0  0  0  0  0
    2.3881    1.2792   -0.0131 C   0  0  0  0  0  0
    2.3613   -0.0716   -0.0198 N   0  0  0  0  0  0
    1.1568   -0.6499   -0.0125 C   0  0  0  0  0  0
   -0.0273   -0.0309    0.0008 N   0  0  0  0  0  0
   -0.0080    1.3201    0.0075 C   0  0  0  0  0  0
    3.3588    1.7526   -0.0190 H   0  0  0  0  0  0
    1.1383   -1.7296   -0.0179 H   0  0  0  0  0  0
   -0.9620    1.8262    0.0182 H   0  0  0  0  0  0
  1  2  1  0  0  0
  2  7  1  0  0  0
  2  3  2  0  0  0
  3  4  1  0  0  0
  3  8  1  0  0  0
  4  5  2  0  0  0
  5  6  1  0  0  0
  5  9  1  0  0  0
  6  7  2  0  0  0
  7 10  1  0  0  0
M  END
> <s_m_entry_id>
907

> <s_m_entry_name>
Spot_Xplore.std.38

> <s_m_Source_Path>
/Volumes/cluster/ddu/2448959/Work/2023/01_Fragment_screening_lib/1_Library_Construction/Work/SpotX/Ph4_Hypo_JC2

> <s_m_Source_File>
SpotX.maegz

> <i_m_Source_File_Index>
41

> <s_m_job_name>
ligprep_SpotXplore

> <i_lp_mmshare_version>
52144

> <s_epik_input>
SWMxW2NIXW5bY0hdbltjSF0x

> <s_epik_cmdline>
J2VwaWtfcHl0aG9uJywgJy1waHQnLCAnMS4wJywgJy1waCcsICc3LjAnLCAnLXRuJywgJzgnLCAnLW1hJywgJzIwMCcsICctaW1hZScsICc8aW5maWxlLm1hZT4nLCAnLW9tYWUnLCAnPG91dGZpbGUubWFlPic=

> <r_lp_tautomer_probability>
1

> <r_epik_Ionization_Penalty>
  0.0000

> <r_epik_Ionization_Penalty_Charging>
  0.0000

> <r_epik_Ionization_Penalty_Neutral>
  0.0000

> <r_epik_State_Penalty>
  0.0000

> <r_epik_Charging_Adjusted_Penalty>
0

> <i_epik_Tot_Q>
0

> <i_epik_Tot_abs_Q>
0

> <i_f3d_flags>
0

> <s_lp_Force_Field>
OPLS_2005

> <r_lp_Energy>
-1.086777

> <b_lp_Chiralities_Consistent>
1

> <s_lp_Variant>
mol_ID_38-1

> <s_epik_Chemistry_Notes>
This compound contains an electron-poor aromatic ring that is susceptible to covalent hydrolysis at low pH, typically resulting in measured values for nitrogen ring protonation that are around two units higher than predicted values.

> <s_m_subgroup_title>
ligprep_SpotXplore-out1

> <s_m_subgroupid>
ligprep_SpotXplore-out1

> <b_m_subgroup_collapsed>
0

$$$$
mol_ID_39
                    3D
 Schrodinger Suite 2020-4.
 10 10  0  0  1  0            999 V2000
    1.1798   -2.7235   -0.0237 I   0  0  0  0  0  0
    1.1375   -0.6332   -0.0119 C   0  0  0  0  0  0
    2.3531    0.0861   -0.0204 C   0  0  0  0  0  0
    2.3857    1.4377   -0.0134 N   0  0  0  0  0  0
    1.1912    2.0698    0.0022 C   0  0  0  0  0  0
   -0.0255    1.3551    0.0108 C   0  0  0  0  0  0
   -0.0556    0.0037    0.0038 N   0  0  0  0  0  0
    3.3041   -0.4258   -0.0329 H   0  0  0  0  0  0
    1.2053    3.1496    0.0080 H   0  0  0  0  0  0
   -0.9755    1.8686    0.0233 H   0  0  0  0  0  0
  1  2  1  0  0  0
  2  7  1  0  0  0
  2  3  2  0  0  0
  3  4  1  0  0  0
  3  8  1  0  0  0
  4  5  2  0  0  0
  5  6  1  0  0  0
  5  9  1  0  0  0
  6  7  2  0  0  0
  6 10  1  0  0  0
M  END
> <s_m_entry_id>
908

> <s_m_entry_name>
Spot_Xplore.std.39

> <s_m_Source_Path>
/Volumes/cluster/ddu/2448959/Work/2023/01_Fragment_screening_lib/1_Library_Construction/Work/SpotX/Ph4_Hypo_JC2

> <s_m_Source_File>
SpotX.maegz

> <i_m_Source_File_Index>
42

> <s_m_job_name>
ligprep_SpotXplore

> <i_lp_mmshare_version>
52144

> <s_epik_input>
SWMxW2NIXW5bY0hdW2NIXW4x

> <s_epik_cmdline>
J2VwaWtfcHl0aG9uJywgJy1waHQnLCAnMS4wJywgJy1waCcsICc3LjAnLCAnLXRuJywgJzgnLCAnLW1hJywgJzIwMCcsICctaW1hZScsICc8aW5maWxlLm1hZT4nLCAnLW9tYWUnLCAnPG91dGZpbGUubWFlPic=

> <r_lp_tautomer_probability>
1

> <r_epik_Ionization_Penalty>
  0.0000

> <r_epik_Ionization_Penalty_Charging>
  0.0000

> <r_epik_Ionization_Penalty_Neutral>
  0.0000

> <r_epik_State_Penalty>
  0.0000

> <r_epik_Charging_Adjusted_Penalty>
0

> <i_epik_Tot_Q>
0

> <i_epik_Tot_abs_Q>
0

> <i_f3d_flags>
0

> <s_lp_Force_Field>
OPLS_2005

> <r_lp_Energy>
9.326471

> <b_lp_Chiralities_Consistent>
1

> <s_lp_Variant>
mol_ID_39-1

> <s_m_subgroup_title>
ligprep_SpotXplore-out1

> <s_m_subgroupid>
ligprep_SpotXplore-out1

> <b_m_subgroup_collapsed>
0

$$$$
mol_ID_40
                    3D
 Schrodinger Suite 2020-4.
  9  9  0  0  1  0            999 V2000
   -1.1708   -0.0674   -0.0000 N   0  0  0  0  0  0
   -0.0146   -0.0092   -0.0000 C   0  0  0  0  0  0
    1.4368    0.0641    0.0000 C   0  0  0  0  0  0
    2.2099    1.1615    0.0000 N   0  0  0  0  0  0
    3.4842    0.7225    0.0000 C   0  0  0  0  0  0
    3.4663   -0.7091    0.0000 C   0  0  0  0  0  0
    2.1747   -1.0619    0.0000 N   0  5  0  0  0  0
    4.3439    1.3811    0.0000 H   0  0  0  0  0  0
    4.2494   -1.4572    0.0000 H   0  0  0  0  0  0
  1  2  3  0  0  0
  2  3  1  0  0  0
  3  7  1  0  0  0
  3  4  2  0  0  0
  4  5  1  0  0  0
  5  6  2  0  0  0
  5  8  1  0  0  0
  6  7  1  0  0  0
  6  9  1  0  0  0
M  CHG  1   7  -1
M  END
> <s_m_entry_id>
909

> <s_m_entry_name>
Spot_Xplore.std.40

> <s_m_Source_Path>
/Volumes/cluster/ddu/2448959/Work/2023/01_Fragment_screening_lib/1_Library_Construction/Work/SpotX/Ph4_Hypo_JC2

> <s_m_Source_File>
SpotX.maegz

> <i_m_Source_File_Index>
43

> <s_m_job_name>
ligprep_SpotXplore

> <i_lp_mmshare_version>
52144

> <s_epik_input>
TiNDYzFuW2NIXVtjSF1bbkhdMQ==

> <s_epik_cmdline>
J2VwaWtfcHl0aG9uJywgJy1waHQnLCAnMS4wJywgJy1waCcsICc3LjAnLCAnLXRuJywgJzgnLCAnLW1hJywgJzIwMCcsICctaW1hZScsICc8aW5maWxlLm1hZT4nLCAnLW9tYWUnLCAnPG91dGZpbGUubWFlPic=

> <r_epik_Ionization_Penalty>
  0.0059

> <r_epik_Ionization_Penalty_Charging>
  0.0059

> <r_epik_Ionization_Penalty_Neutral>
  0.0000

> <r_epik_State_Penalty>
  0.0043

> <r_epik_Charging_Adjusted_Penalty>
0.010181693409021

> <i_epik_Tot_Q>
-1

> <i_epik_Tot_abs_Q>
1

> <i_f3d_flags>
0

> <s_lp_Force_Field>
OPLS_2005

> <r_lp_Energy>
15.576712

> <b_lp_Chiralities_Consistent>
1

> <s_lp_Variant>
mol_ID_40-1

> <s_m_subgroup_title>
ligprep_SpotXplore-out1

> <s_m_subgroupid>
ligprep_SpotXplore-out1

> <b_m_subgroup_collapsed>
0

$$$$
mol_ID_41
                    3D
 Schrodinger Suite 2020-4.
  9  9  0  0  1  0            999 V2000
    3.6707    3.6237    1.7457 I   0  0  0  0  0  0
    2.0560    4.3591    0.6402 C   0  0  0  0  0  0
    1.7308    5.6651    0.4316 C   0  0  0  0  0  0
    0.5602    5.5589   -0.3776 C   0  0  0  0  0  0
    0.2108    4.3012   -0.6340 N   0  0  0  0  0  0
    1.1428    3.5617    0.0003 N   0  0  0  0  0  0
    2.2392    6.5465    0.7932 H   0  0  0  0  0  0
   -0.0446    6.3554   -0.7853 H   0  0  0  0  0  0
    1.1367    2.5517   -0.0162 H   0  0  0  0  0  0
  1  2  1  0  0  0
  2  6  1  0  0  0
  2  3  2  0  0  0
  3  4  1  0  0  0
  3  7  1  0  0  0
  4  5  2  0  0  0
  4  8  1  0  0  0
  5  6  1  0  0  0
  6  9  1  0  0  0
M  END
> <s_m_entry_id>
910

> <s_m_entry_name>
Spot_Xplore.std.41

> <s_m_Source_Path>
/Volumes/cluster/ddu/2448959/Work/2023/01_Fragment_screening_lib/1_Library_Construction/Work/SpotX/Ph4_Hypo_JC2

> <s_m_Source_File>
SpotX.maegz

> <i_m_Source_File_Index>
44

> <s_m_job_name>
ligprep_SpotXplore

> <i_lp_mmshare_version>
52144

> <s_epik_input>
SWMxW2NIXVtjSF1uW25IXTE=

> <s_epik_cmdline>
J2VwaWtfcHl0aG9uJywgJy1waHQnLCAnMS4wJywgJy1waCcsICc3LjAnLCAnLXRuJywgJzgnLCAnLW1hJywgJzIwMCcsICctaW1hZScsICc8aW5maWxlLm1hZT4nLCAnLW9tYWUnLCAnPG91dGZpbGUubWFlPic=

> <r_lp_tautomer_probability>
0.5

> <r_epik_Ionization_Penalty>
  0.0000

> <r_epik_Ionization_Penalty_Charging>
  0.0000

> <r_epik_Ionization_Penalty_Neutral>
  0.0000

> <r_epik_State_Penalty>
  0.4107

> <r_epik_Charging_Adjusted_Penalty>
0.410679838952604

> <i_epik_Tot_Q>
0

> <i_epik_Tot_abs_Q>
0

> <i_f3d_flags>
0

> <s_lp_Force_Field>
OPLS_2005

> <r_lp_Energy>
2.3909

> <b_lp_Chiralities_Consistent>
1

> <s_lp_Variant>
mol_ID_41-1

> <s_m_subgroup_title>
ligprep_SpotXplore-out1

> <s_m_subgroupid>
ligprep_SpotXplore-out1

> <b_m_subgroup_collapsed>
0

$$$$
mol_ID_41
                    3D
 Schrodinger Suite 2020-4.
  9  9  0  0  1  0            999 V2000
    1.1233   -0.5610   -5.3076 I   0  0  0  0  0  0
    1.1733   -0.7367   -3.2251 C   0  0  0  0  0  0
    2.1087   -1.5349   -2.5103 C   0  0  0  0  0  0
    1.7485   -1.3302   -1.2080 C   0  0  0  0  0  0
    0.6739   -0.4657   -1.2220 N   0  0  0  0  0  0
    0.3077   -0.0906   -2.4640 N   0  0  0  0  0  0
    2.9088   -2.1533   -2.8892 H   0  0  0  0  0  0
    2.1587   -1.7198   -0.2879 H   0  0  0  0  0  0
    0.1881   -0.1286   -0.4030 H   0  0  0  0  0  0
  1  2  1  0  0  0
  2  6  2  0  0  0
  2  3  1  0  0  0
  3  4  2  0  0  0
  3  7  1  0  0  0
  4  5  1  0  0  0
  4  8  1  0  0  0
  5  6  1  0  0  0
  5  9  1  0  0  0
M  END
> <s_m_entry_id>
911

> <s_m_entry_name>
Spot_Xplore.std.41

> <s_m_Source_Path>
/Volumes/cluster/ddu/2448959/Work/2023/01_Fragment_screening_lib/1_Library_Construction/Work/SpotX/Ph4_Hypo_JC2

> <s_m_Source_File>
SpotX.maegz

> <i_m_Source_File_Index>
45

> <s_m_job_name>
ligprep_SpotXplore

> <i_lp_mmshare_version>
52144

> <s_epik_input>
SWMxW2NIXVtjSF1uW25IXTE=

> <s_epik_cmdline>
J2VwaWtfcHl0aG9uJywgJy1waHQnLCAnMS4wJywgJy1waCcsICc3LjAnLCAnLXRuJywgJzgnLCAnLW1hJywgJzIwMCcsICctaW1hZScsICc8aW5maWxlLm1hZT4nLCAnLW9tYWUnLCAnPG91dGZpbGUubWFlPic=

> <r_lp_tautomer_probability>
0.5

> <r_epik_Ionization_Penalty>
  0.0000

> <r_epik_Ionization_Penalty_Charging>
  0.0000

> <r_epik_Ionization_Penalty_Neutral>
  0.0000

> <r_epik_State_Penalty>
  0.4107

> <r_epik_Charging_Adjusted_Penalty>
0.410679838952604

> <i_epik_Tot_Q>
0

> <i_epik_Tot_abs_Q>
0

> <i_f3d_flags>
0

> <s_lp_Force_Field>
OPLS_2005

> <r_lp_Energy>
1.193583

> <b_lp_Chiralities_Consistent>
1

> <s_lp_Variant>
mol_ID_41-2

> <s_m_subgroup_title>
ligprep_SpotXplore-out1

> <s_m_subgroupid>
ligprep_SpotXplore-out1

> <b_m_subgroup_collapsed>
0

$$$$
mol_ID_42
                    3D
 Schrodinger Suite 2020-4.
  9  9  0  0  1  0            999 V2000
   -1.1213   -0.0008    0.0000 N   0  0  0  0  0  0
    0.0356    0.0145   -0.0000 C   0  0  0  0  0  0
    1.4557    0.0368   -0.0000 C   0  0  0  0  0  0
    2.2995    1.1183   -0.0000 C   0  0  0  0  0  0
    3.5970    0.6813   -0.0000 O   0  0  0  0  0  0
    3.4877   -0.6735   -0.0000 C   0  0  0  0  0  0
    2.2322   -1.1144   -0.0000 N   0  0  0  0  0  0
    2.1478    2.1878   -0.0000 H   0  0  0  0  0  0
    4.3602   -1.3103   -0.0000 H   0  0  0  0  0  0
  1  2  3  0  0  0
  2  3  1  0  0  0
  3  7  1  0  0  0
  3  4  2  0  0  0
  4  5  1  0  0  0
  4  8  1  0  0  0
  5  6  1  0  0  0
  6  7  2  0  0  0
  6  9  1  0  0  0
M  END
> <s_m_entry_id>
912

> <s_m_entry_name>
Spot_Xplore.std.42

> <s_m_Source_Path>
/Volumes/cluster/ddu/2448959/Work/2023/01_Fragment_screening_lib/1_Library_Construction/Work/SpotX/Ph4_Hypo_JC2

> <s_m_Source_File>
SpotX.maegz

> <i_m_Source_File_Index>
46

> <s_m_job_name>
ligprep_SpotXplore

> <i_lp_mmshare_version>
52144

> <s_epik_input>
TiNDYzFbY0hdb1tjSF1uMQ==

> <s_epik_cmdline>
J2VwaWtfcHl0aG9uJywgJy1waHQnLCAnMS4wJywgJy1waCcsICc3LjAnLCAnLXRuJywgJzgnLCAnLW1hJywgJzIwMCcsICctaW1hZScsICc8aW5maWxlLm1hZT4nLCAnLW9tYWUnLCAnPG91dGZpbGUubWFlPic=

> <r_lp_tautomer_probability>
1

> <r_epik_Ionization_Penalty>
  0.0000

> <r_epik_Ionization_Penalty_Charging>
  0.0000

> <r_epik_Ionization_Penalty_Neutral>
  0.0000

> <r_epik_State_Penalty>
  0.0000

> <r_epik_Charging_Adjusted_Penalty>
0

> <i_epik_Tot_Q>
0

> <i_epik_Tot_abs_Q>
0

> <i_f3d_flags>
0

> <s_lp_Force_Field>
OPLS_2005

> <r_lp_Energy>
2.141244

> <b_lp_Chiralities_Consistent>
1

> <s_lp_Variant>
mol_ID_42-1

> <s_m_subgroup_title>
ligprep_SpotXplore-out1

> <s_m_subgroupid>
ligprep_SpotXplore-out1

> <b_m_subgroup_collapsed>
0

$$$$
mol_ID_43
                    3D
 Schrodinger Suite 2020-4.
  8  8  0  0  1  0            999 V2000
   -0.4645    7.3326    0.0447 Br  0  0  0  0  0  0
    0.4543    5.6665    0.0290 C   0  0  0  0  0  0
    1.7837    5.5948    0.0198 N   0  0  0  0  0  0
    2.1990    4.2588    0.0093 C   0  0  0  0  0  0
    1.1629    3.3527    0.0108 C   0  0  0  0  0  0
   -0.3978    4.1367    0.0256 S   0  0  0  0  0  0
    3.2567    4.0403    0.0010 H   0  0  0  0  0  0
    1.2247    2.2745    0.0041 H   0  0  0  0  0  0
  1  2  1  0  0  0
  2  6  1  0  0  0
  2  3  2  0  0  0
  3  4  1  0  0  0
  4  5  2  0  0  0
  4  7  1  0  0  0
  5  6  1  0  0  0
  5  8  1  0  0  0
M  END
> <s_m_entry_id>
913

> <s_m_entry_name>
Spot_Xplore.std.43

> <s_m_Source_Path>
/Volumes/cluster/ddu/2448959/Work/2023/01_Fragment_screening_lib/1_Library_Construction/Work/SpotX/Ph4_Hypo_JC2

> <s_m_Source_File>
SpotX.maegz

> <i_m_Source_File_Index>
47

> <s_m_job_name>
ligprep_SpotXplore

> <i_lp_mmshare_version>
52144

> <s_epik_input>
QnJjMW5bY0hdW2NIXXMx

> <s_epik_cmdline>
J2VwaWtfcHl0aG9uJywgJy1waHQnLCAnMS4wJywgJy1waCcsICc3LjAnLCAnLXRuJywgJzgnLCAnLW1hJywgJzIwMCcsICctaW1hZScsICc8aW5maWxlLm1hZT4nLCAnLW9tYWUnLCAnPG91dGZpbGUubWFlPic=

> <r_lp_tautomer_probability>
1

> <r_epik_Ionization_Penalty>
  0.0000

> <r_epik_Ionization_Penalty_Charging>
  0.0000

> <r_epik_Ionization_Penalty_Neutral>
  0.0000

> <r_epik_State_Penalty>
  0.0000

> <r_epik_Charging_Adjusted_Penalty>
0

> <i_epik_Tot_Q>
0

> <i_epik_Tot_abs_Q>
0

> <i_f3d_flags>
0

> <s_lp_Force_Field>
OPLS_2005

> <r_lp_Energy>
1.343911

> <b_lp_Chiralities_Consistent>
1

> <s_lp_Variant>
mol_ID_43-1

> <s_m_subgroup_title>
ligprep_SpotXplore-out1

> <s_m_subgroupid>
ligprep_SpotXplore-out1

> <b_m_subgroup_collapsed>
0

$$$$
mol_ID_44
                    3D
 Schrodinger Suite 2020-4.
 11 11  0  0  1  0            999 V2000
    2.0589   -5.1586   -3.5191 Br  0  0  0  0  0  0
    1.2430   -4.1792   -2.1063 C   0  0  0  0  0  0
    1.2375   -2.7711   -2.1217 C   0  0  0  0  0  0
    0.6199   -2.0939   -1.0512 C   0  0  0  0  0  0
    0.0336   -2.7275   -0.0122 N   0  0  0  0  0  0
    0.0447   -4.0782   -0.0078 C   0  0  0  0  0  0
    0.6347   -4.8506   -1.0282 C   0  0  0  0  0  0
    1.6945   -2.2230   -2.9323 H   0  0  0  0  0  0
    0.5964   -1.0145   -1.0292 H   0  0  0  0  0  0
   -0.4310   -4.5585    0.8344 H   0  0  0  0  0  0
    0.6199   -5.9295   -0.9833 H   0  0  0  0  0  0
  1  2  1  0  0  0
  2  7  1  0  0  0
  2  3  2  0  0  0
  3  4  1  0  0  0
  3  8  1  0  0  0
  4  5  2  0  0  0
  4  9  1  0  0  0
  5  6  1  0  0  0
  6  7  2  0  0  0
  6 10  1  0  0  0
  7 11  1  0  0  0
M  END
> <s_m_entry_id>
914

> <s_m_entry_name>
Spot_Xplore.std.44

> <s_m_Source_Path>
/Volumes/cluster/ddu/2448959/Work/2023/01_Fragment_screening_lib/1_Library_Construction/Work/SpotX/Ph4_Hypo_JC2

> <s_m_Source_File>
SpotX.maegz

> <i_m_Source_File_Index>
48

> <s_m_job_name>
ligprep_SpotXplore

> <i_lp_mmshare_version>
52144

> <s_epik_input>
QnJjMVtjSF1bY0hdbltjSF1bY0hdMQ==

> <s_epik_cmdline>
J2VwaWtfcHl0aG9uJywgJy1waHQnLCAnMS4wJywgJy1waCcsICc3LjAnLCAnLXRuJywgJzgnLCAnLW1hJywgJzIwMCcsICctaW1hZScsICc8aW5maWxlLm1hZT4nLCAnLW9tYWUnLCAnPG91dGZpbGUubWFlPic=

> <r_lp_tautomer_probability>
1

> <r_epik_Ionization_Penalty>
  0.0002

> <r_epik_Ionization_Penalty_Charging>
  0.0000

> <r_epik_Ionization_Penalty_Neutral>
  0.0002

> <r_epik_State_Penalty>
  0.0000

> <r_epik_Charging_Adjusted_Penalty>
0

> <i_epik_Tot_Q>
0

> <i_epik_Tot_abs_Q>
0

> <i_f3d_flags>
0

> <s_lp_Force_Field>
OPLS_2005

> <r_lp_Energy>
0.809807

> <b_lp_Chiralities_Consistent>
1

> <s_lp_Variant>
mol_ID_44-1

> <s_m_subgroup_title>
ligprep_SpotXplore-out1

> <s_m_subgroupid>
ligprep_SpotXplore-out1

> <b_m_subgroup_collapsed>
0

$$$$
mol_ID_45
                    3D
 Schrodinger Suite 2020-4.
 13 13  0  0  1  0            999 V2000
   -1.1841    0.0027    0.0004 C   0  0  0  0  0  0
    0.0371   -0.0085   -0.0001 C   0  0  0  0  0  0
    1.4900   -0.0115    0.0000 C   0  0  0  0  0  0
    2.1893    1.2150    0.0000 C   0  0  0  0  0  0
    3.5976    1.1887   -0.0000 C   0  0  0  0  0  0
    4.2523   -0.0577   -0.0000 C   0  0  0  0  0  0
    3.4655   -1.2263   -0.0000 C   0  0  0  0  0  0
    2.1150   -1.2101    0.0000 N   0  0  0  0  0  0
   -2.2510    0.0079    0.0016 H   0  0  0  0  0  0
    1.6623    2.1583    0.0000 H   0  0  0  0  0  0
    4.1650    2.1077   -0.0000 H   0  0  0  0  0  0
    5.3306   -0.1170    0.0000 H   0  0  0  0  0  0
    3.9331   -2.1998   -0.0000 H   0  0  0  0  0  0
  1  2  3  0  0  0
  1  9  1  0  0  0
  2  3  1  0  0  0
  3  8  1  0  0  0
  3  4  2  0  0  0
  4  5  1  0  0  0
  4 10  1  0  0  0
  5  6  2  0  0  0
  5 11  1  0  0  0
  6  7  1  0  0  0
  6 12  1  0  0  0
  7  8  2  0  0  0
  7 13  1  0  0  0
M  END
> <s_m_entry_id>
915

> <s_m_entry_name>
Spot_Xplore.std.45

> <s_m_Source_Path>
/Volumes/cluster/ddu/2448959/Work/2023/01_Fragment_screening_lib/1_Library_Construction/Work/SpotX/Ph4_Hypo_JC2

> <s_m_Source_File>
SpotX.maegz

> <i_m_Source_File_Index>
49

> <s_m_job_name>
ligprep_SpotXplore

> <i_lp_mmshare_version>
52144

> <s_epik_input>
W0NIXSNDYzFbY0hdW2NIXVtjSF1bY0hdbjE=

> <s_epik_cmdline>
J2VwaWtfcHl0aG9uJywgJy1waHQnLCAnMS4wJywgJy1waCcsICc3LjAnLCAnLXRuJywgJzgnLCAnLW1hJywgJzIwMCcsICctaW1hZScsICc8aW5maWxlLm1hZT4nLCAnLW9tYWUnLCAnPG91dGZpbGUubWFlPic=

> <r_lp_tautomer_probability>
1

> <r_epik_Ionization_Penalty>
  0.0001

> <r_epik_Ionization_Penalty_Charging>
  0.0000

> <r_epik_Ionization_Penalty_Neutral>
  0.0001

> <r_epik_State_Penalty>
  0.0000

> <r_epik_Charging_Adjusted_Penalty>
0

> <i_epik_Tot_Q>
0

> <i_epik_Tot_abs_Q>
0

> <i_f3d_flags>
0

> <s_lp_Force_Field>
OPLS_2005

> <r_lp_Energy>
1.768388

> <b_lp_Chiralities_Consistent>
1

> <s_lp_Variant>
mol_ID_45-1

> <s_m_subgroup_title>
ligprep_SpotXplore-out1

> <s_m_subgroupid>
ligprep_SpotXplore-out1

> <b_m_subgroup_collapsed>
0

$$$$
mol_ID_46
                    3D
 Schrodinger Suite 2020-4.
 11 11  0  0  1  0            999 V2000
   -1.0853    0.0113   -0.0000 N   0  0  0  0  0  0
    0.0722    0.0087    0.0000 C   0  0  0  0  0  0
    1.5112    0.0055    0.0000 C   0  0  0  0  0  0
    2.1163    1.1974    0.0000 N   0  0  0  0  0  0
    3.4672    1.1978    0.0000 C   0  0  0  0  0  0
    4.2087   -0.0006    0.0000 C   0  0  0  0  0  0
    3.4618   -1.1958    0.0000 C   0  0  0  0  0  0
    2.1110   -1.1892   -0.0000 N   0  0  0  0  0  0
    3.9589    2.1592    0.0000 H   0  0  0  0  0  0
    5.2887   -0.0030    0.0000 H   0  0  0  0  0  0
    3.9494   -2.1595   -0.0000 H   0  0  0  0  0  0
  1  2  3  0  0  0
  2  3  1  0  0  0
  3  8  1  0  0  0
  3  4  2  0  0  0
  4  5  1  0  0  0
  5  6  2  0  0  0
  5  9  1  0  0  0
  6  7  1  0  0  0
  6 10  1  0  0  0
  7  8  2  0  0  0
  7 11  1  0  0  0
M  END
> <s_m_entry_id>
916

> <s_m_entry_name>
Spot_Xplore.std.46

> <s_m_Source_Path>
/Volumes/cluster/ddu/2448959/Work/2023/01_Fragment_screening_lib/1_Library_Construction/Work/SpotX/Ph4_Hypo_JC2

> <s_m_Source_File>
SpotX.maegz

> <i_m_Source_File_Index>
50

> <s_m_job_name>
ligprep_SpotXplore

> <i_lp_mmshare_version>
52144

> <s_epik_input>
TiNDYzFuW2NIXVtjSF1bY0hdbjE=

> <s_epik_cmdline>
J2VwaWtfcHl0aG9uJywgJy1waHQnLCAnMS4wJywgJy1waCcsICc3LjAnLCAnLXRuJywgJzgnLCAnLW1hJywgJzIwMCcsICctaW1hZScsICc8aW5maWxlLm1hZT4nLCAnLW9tYWUnLCAnPG91dGZpbGUubWFlPic=

> <r_lp_tautomer_probability>
1

> <r_epik_Ionization_Penalty>
  0.0000

> <r_epik_Ionization_Penalty_Charging>
  0.0000

> <r_epik_Ionization_Penalty_Neutral>
  0.0000

> <r_epik_State_Penalty>
  0.0000

> <r_epik_Charging_Adjusted_Penalty>
0

> <i_epik_Tot_Q>
0

> <i_epik_Tot_abs_Q>
0

> <i_f3d_flags>
0

> <s_lp_Force_Field>
OPLS_2005

> <r_lp_Energy>
-1.079933

> <b_lp_Chiralities_Consistent>
1

> <s_lp_Variant>
mol_ID_46-1

> <s_epik_Chemistry_Notes>
This compound contains an electron-poor aromatic ring that is susceptible to covalent hydrolysis at low pH, typically resulting in measured values for nitrogen ring protonation that are around two units higher than predicted values.

> <s_m_subgroup_title>
ligprep_SpotXplore-out1

> <s_m_subgroupid>
ligprep_SpotXplore-out1

> <b_m_subgroup_collapsed>
0

$$$$
mol_ID_47
                    3D
 Schrodinger Suite 2020-4.
 11 11  0  0  1  0            999 V2000
   -1.1151    0.0166    0.0000 N   0  0  0  0  0  0
    0.0420    0.0026   -0.0000 C   0  0  0  0  0  0
    1.4946   -0.0145   -0.0000 C   0  0  0  0  0  0
    2.2193    1.1991   -0.0000 C   0  0  0  0  0  0
    3.5712    1.2240   -0.0000 N   0  0  0  0  0  0
    4.1975    0.0264   -0.0000 C   0  0  0  0  0  0
    3.4773   -1.1872    0.0000 C   0  0  0  0  0  0
    2.1256   -1.2113    0.0000 N   0  0  0  0  0  0
    1.7171    2.1556   -0.0000 H   0  0  0  0  0  0
    5.2774    0.0356   -0.0000 H   0  0  0  0  0  0
    3.9864   -2.1395    0.0000 H   0  0  0  0  0  0
  1  2  3  0  0  0
  2  3  1  0  0  0
  3  8  1  0  0  0
  3  4  2  0  0  0
  4  5  1  0  0  0
  4  9  1  0  0  0
  5  6  2  0  0  0
  6  7  1  0  0  0
  6 10  1  0  0  0
  7  8  2  0  0  0
  7 11  1  0  0  0
M  END
> <s_m_entry_id>
917

> <s_m_entry_name>
Spot_Xplore.std.47

> <s_m_Source_Path>
/Volumes/cluster/ddu/2448959/Work/2023/01_Fragment_screening_lib/1_Library_Construction/Work/SpotX/Ph4_Hypo_JC2

> <s_m_Source_File>
SpotX.maegz

> <i_m_Source_File_Index>
51

> <s_m_job_name>
ligprep_SpotXplore

> <i_lp_mmshare_version>
52144

> <s_epik_input>
TiNDYzFbY0hdbltjSF1bY0hdbjE=

> <s_epik_cmdline>
J2VwaWtfcHl0aG9uJywgJy1waHQnLCAnMS4wJywgJy1waCcsICc3LjAnLCAnLXRuJywgJzgnLCAnLW1hJywgJzIwMCcsICctaW1hZScsICc8aW5maWxlLm1hZT4nLCAnLW9tYWUnLCAnPG91dGZpbGUubWFlPic=

> <r_lp_tautomer_probability>
1

> <r_epik_Ionization_Penalty>
  0.0000

> <r_epik_Ionization_Penalty_Charging>
  0.0000

> <r_epik_Ionization_Penalty_Neutral>
  0.0000

> <r_epik_State_Penalty>
  0.0000

> <r_epik_Charging_Adjusted_Penalty>
0

> <i_epik_Tot_Q>
0

> <i_epik_Tot_abs_Q>
0

> <i_f3d_flags>
0

> <s_lp_Force_Field>
OPLS_2005

> <r_lp_Energy>
10.315777

> <b_lp_Chiralities_Consistent>
1

> <s_lp_Variant>
mol_ID_47-1

> <s_m_subgroup_title>
ligprep_SpotXplore-out1

> <s_m_subgroupid>
ligprep_SpotXplore-out1

> <b_m_subgroup_collapsed>
0

$$$$
mol_ID_48
                    3D
 Schrodinger Suite 2020-4.
 10 10  0  0  1  0            999 V2000
   -1.1165    0.0128    0.0000 N   0  0  0  0  0  0
    0.0405    0.0200   -0.0000 C   0  0  0  0  0  0
    1.4612    0.0333   -0.0000 C   0  0  0  0  0  0
    2.3010    1.1268   -0.0000 C   0  0  0  0  0  0
    3.5863    0.6122   -0.0000 N   0  0  0  0  0  0
    3.4781   -0.7189   -0.0000 C   0  0  0  0  0  0
    2.2193   -1.1413    0.0000 N   0  0  0  0  0  0
    2.0984    2.1878   -0.0000 H   0  0  0  0  0  0
    4.4456    1.1429   -0.0000 H   0  0  0  0  0  0
    4.3285   -1.3849   -0.0000 H   0  0  0  0  0  0
  1  2  3  0  0  0
  2  3  1  0  0  0
  3  7  1  0  0  0
  3  4  2  0  0  0
  4  5  1  0  0  0
  4  8  1  0  0  0
  5  6  1  0  0  0
  5  9  1  0  0  0
  6  7  2  0  0  0
  6 10  1  0  0  0
M  END
> <s_m_entry_id>
918

> <s_m_entry_name>
Spot_Xplore.std.48

> <s_m_Source_Path>
/Volumes/cluster/ddu/2448959/Work/2023/01_Fragment_screening_lib/1_Library_Construction/Work/SpotX/Ph4_Hypo_JC2

> <s_m_Source_File>
SpotX.maegz

> <i_m_Source_File_Index>
52

> <s_m_job_name>
ligprep_SpotXplore

> <i_lp_mmshare_version>
52144

> <s_epik_input>
TiNDYzFbY0hdW25IXVtjSF1uMQ==

> <s_epik_cmdline>
J2VwaWtfcHl0aG9uJywgJy1waHQnLCAnMS4wJywgJy1waCcsICc3LjAnLCAnLXRuJywgJzgnLCAnLW1hJywgJzIwMCcsICctaW1hZScsICc8aW5maWxlLm1hZT4nLCAnLW9tYWUnLCAnPG91dGZpbGUubWFlPic=

> <r_lp_tautomer_probability>
1

> <r_epik_Ionization_Penalty>
  0.0003

> <r_epik_Ionization_Penalty_Charging>
  0.0000

> <r_epik_Ionization_Penalty_Neutral>
  0.0003

> <r_epik_State_Penalty>
  0.0000

> <r_epik_Charging_Adjusted_Penalty>
1.91724639310891e-09

> <i_epik_Tot_Q>
0

> <i_epik_Tot_abs_Q>
0

> <i_f3d_flags>
0

> <s_lp_Force_Field>
OPLS_2005

> <r_lp_Energy>
4.197816

> <b_lp_Chiralities_Consistent>
1

> <s_lp_Variant>
mol_ID_48-1

> <s_m_subgroup_title>
ligprep_SpotXplore-out1

> <s_m_subgroupid>
ligprep_SpotXplore-out1

> <b_m_subgroup_collapsed>
0

$$$$
mol_ID_49
                    3D
 Schrodinger Suite 2020-4.
 10 10  0  0  1  0            999 V2000
   -1.1088   -0.0276   -0.0000 N   0  0  0  0  0  0
    0.0481   -0.0186    0.0000 C   0  0  0  0  0  0
    1.4628   -0.0081    0.0000 C   0  0  0  0  0  0
    2.3404    1.1160    0.0000 C   0  0  0  0  0  0
    3.6205    0.7756    0.0000 N   0  0  0  0  0  0
    3.5916   -0.5700   -0.0000 N   0  0  0  0  0  0
    2.3133   -1.0780   -0.0000 C   0  0  0  0  0  0
    2.0850    2.1656    0.0000 H   0  0  0  0  0  0
    4.4394   -1.1196   -0.0000 H   0  0  0  0  0  0
    2.1196   -2.1407   -0.0000 H   0  0  0  0  0  0
  1  2  3  0  0  0
  2  3  1  0  0  0
  3  7  2  0  0  0
  3  4  1  0  0  0
  4  5  2  0  0  0
  4  8  1  0  0  0
  5  6  1  0  0  0
  6  7  1  0  0  0
  6  9  1  0  0  0
  7 10  1  0  0  0
M  END
> <s_m_entry_id>
919

> <s_m_entry_name>
Spot_Xplore.std.49

> <s_m_Source_Path>
/Volumes/cluster/ddu/2448959/Work/2023/01_Fragment_screening_lib/1_Library_Construction/Work/SpotX/Ph4_Hypo_JC2

> <s_m_Source_File>
SpotX.maegz

> <i_m_Source_File_Index>
53

> <s_m_job_name>
ligprep_SpotXplore

> <i_lp_mmshare_version>
52144

> <s_epik_input>
TiNDYzFbY0hdbltuSF1bY0hdMQ==

> <s_epik_cmdline>
J2VwaWtfcHl0aG9uJywgJy1waHQnLCAnMS4wJywgJy1waCcsICc3LjAnLCAnLXRuJywgJzgnLCAnLW1hJywgJzIwMCcsICctaW1hZScsICc8aW5maWxlLm1hZT4nLCAnLW9tYWUnLCAnPG91dGZpbGUubWFlPic=

> <r_lp_tautomer_probability>
1

> <r_epik_Ionization_Penalty>
  0.0000

> <r_epik_Ionization_Penalty_Charging>
  0.0000

> <r_epik_Ionization_Penalty_Neutral>
  0.0000

> <r_epik_State_Penalty>
  0.0000

> <r_epik_Charging_Adjusted_Penalty>
0

> <i_epik_Tot_Q>
0

> <i_epik_Tot_abs_Q>
0

> <i_f3d_flags>
0

> <s_lp_Force_Field>
OPLS_2005

> <r_lp_Energy>
0.794225

> <b_lp_Chiralities_Consistent>
1

> <s_lp_Variant>
mol_ID_49-1

> <s_m_subgroup_title>
ligprep_SpotXplore-out1

> <s_m_subgroupid>
ligprep_SpotXplore-out1

> <b_m_subgroup_collapsed>
0

$$$$
mol_ID_50
                    3D
 Schrodinger Suite 2020-4.
 15 15  0  0  1  0            999 V2000
   -0.0274   -0.0053    0.0000 C   0  0  0  0  0  0
    1.4431    0.0089    0.0000 N   0  3  0  0  0  0
    2.1084    1.1921    0.0000 C   0  0  0  0  0  0
    3.5184    1.2178    0.0000 C   0  0  0  0  0  0
    4.2277    0.0004    0.0000 C   0  0  0  0  0  0
    3.5093   -1.2118    0.0000 C   0  0  0  0  0  0
    4.3434   -2.7214   -0.0000 Cl  0  0  0  0  0  0
    2.1001   -1.1770   -0.0000 C   0  0  0  0  0  0
   -0.4156    1.0139   -0.0000 H   0  0  0  0  0  0
   -0.3660   -0.5291    0.8947 H   0  0  0  0  0  0
   -0.3660   -0.5291   -0.8947 H   0  0  0  0  0  0
    1.5085    2.0905    0.0000 H   0  0  0  0  0  0
    4.0491    2.1589    0.0000 H   0  0  0  0  0  0
    5.3081   -0.0021    0.0000 H   0  0  0  0  0  0
    1.4859   -2.0662   -0.0000 H   0  0  0  0  0  0
  1  2  1  0  0  0
  1  9  1  0  0  0
  1 10  1  0  0  0
  1 11  1  0  0  0
  2  8  1  0  0  0
  2  3  2  0  0  0
  3  4  1  0  0  0
  3 12  1  0  0  0
  4  5  2  0  0  0
  4 13  1  0  0  0
  5  6  1  0  0  0
  5 14  1  0  0  0
  6  7  1  0  0  0
  6  8  2  0  0  0
  8 15  1  0  0  0
M  CHG  1   2   1
M  END
> <s_m_entry_id>
920

> <s_m_entry_name>
Spot_Xplore.std.50

> <s_m_Source_Path>
/Volumes/cluster/ddu/2448959/Work/2023/01_Fragment_screening_lib/1_Library_Construction/Work/SpotX/Ph4_Hypo_JC2

> <s_m_Source_File>
SpotX.maegz

> <i_m_Source_File_Index>
54

> <s_m_job_name>
ligprep_SpotXplore

> <i_lp_mmshare_version>
52144

> <s_epik_input>
W0NIM11bbitdMVtjSF1bY0hdW2NIXWMoQ2wpW2NIXTE=

> <s_epik_cmdline>
J2VwaWtfcHl0aG9uJywgJy1waHQnLCAnMS4wJywgJy1waCcsICc3LjAnLCAnLXRuJywgJzgnLCAnLW1hJywgJzIwMCcsICctaW1hZScsICc8aW5maWxlLm1hZT4nLCAnLW9tYWUnLCAnPG91dGZpbGUubWFlPic=

> <r_lp_tautomer_probability>
1

> <r_epik_Ionization_Penalty>
  0.0000

> <r_epik_Ionization_Penalty_Charging>
  0.0000

> <r_epik_Ionization_Penalty_Neutral>
  0.0000

> <r_epik_State_Penalty>
  0.0000

> <r_epik_Charging_Adjusted_Penalty>
0

> <i_epik_Tot_Q>
1

> <i_epik_Tot_abs_Q>
1

> <i_f3d_flags>
0

> <s_lp_Force_Field>
OPLS_2005

> <r_lp_Energy>
8.598812

> <b_lp_Chiralities_Consistent>
1

> <s_lp_Variant>
mol_ID_50-1

> <s_m_subgroup_title>
ligprep_SpotXplore-out1

> <s_m_subgroupid>
ligprep_SpotXplore-out1

> <b_m_subgroup_collapsed>
0

$$$$
mol_ID_51
                    3D
 Schrodinger Suite 2020-4.
  8  8  0  0  1  0            999 V2000
   -0.0320   -0.1279   -6.8655 Br  0  0  0  0  0  0
   -0.0215   -0.0335   -4.9650 C   0  0  0  0  0  0
   -0.0293    1.1369   -4.2519 C   0  0  0  0  0  0
   -0.0187    0.9116   -2.8708 N   0  0  0  0  0  0
   -0.0035   -0.3939   -2.5780 C   0  0  0  0  0  0
   -0.0009   -1.4626   -3.9771 S   0  0  0  0  0  0
   -0.0420    2.1476   -4.6325 H   0  0  0  0  0  0
    0.0061   -0.7251   -1.5501 H   0  0  0  0  0  0
  1  2  1  0  0  0
  2  6  1  0  0  0
  2  3  2  0  0  0
  3  4  1  0  0  0
  3  7  1  0  0  0
  4  5  2  0  0  0
  5  6  1  0  0  0
  5  8  1  0  0  0
M  END
> <s_m_entry_id>
921

> <s_m_entry_name>
Spot_Xplore.std.51

> <s_m_Source_Path>
/Volumes/cluster/ddu/2448959/Work/2023/01_Fragment_screening_lib/1_Library_Construction/Work/SpotX/Ph4_Hypo_JC2

> <s_m_Source_File>
SpotX.maegz

> <i_m_Source_File_Index>
55

> <s_m_job_name>
ligprep_SpotXplore

> <i_lp_mmshare_version>
52144

> <s_epik_input>
QnJjMVtjSF1uW2NIXXMx

> <s_epik_cmdline>
J2VwaWtfcHl0aG9uJywgJy1waHQnLCAnMS4wJywgJy1waCcsICc3LjAnLCAnLXRuJywgJzgnLCAnLW1hJywgJzIwMCcsICctaW1hZScsICc8aW5maWxlLm1hZT4nLCAnLW9tYWUnLCAnPG91dGZpbGUubWFlPic=

> <r_lp_tautomer_probability>
1

> <r_epik_Ionization_Penalty>
  0.0000

> <r_epik_Ionization_Penalty_Charging>
  0.0000

> <r_epik_Ionization_Penalty_Neutral>
  0.0000

> <r_epik_State_Penalty>
  0.0000

> <r_epik_Charging_Adjusted_Penalty>
0

> <i_epik_Tot_Q>
0

> <i_epik_Tot_abs_Q>
0

> <i_f3d_flags>
0

> <s_lp_Force_Field>
OPLS_2005

> <r_lp_Energy>
1.29024

> <b_lp_Chiralities_Consistent>
1

> <s_lp_Variant>
mol_ID_51-1

> <s_m_subgroup_title>
ligprep_SpotXplore-out1

> <s_m_subgroupid>
ligprep_SpotXplore-out1

> <b_m_subgroup_collapsed>
0

$$$$
mol_ID_52
                    3D
 Schrodinger Suite 2020-4.
 11 11  0  0  1  0            999 V2000
    3.0999   -1.8204   -5.1037 I   0  0  0  0  0  0
    1.7568   -1.2976   -3.5892 C   0  0  0  0  0  0
    1.2698   -2.3087   -2.7348 C   0  0  0  0  0  0
    0.3651   -1.9550   -1.7151 C   0  0  0  0  0  0
   -0.0182   -0.6065   -1.5878 C   0  0  0  0  0  0
    0.5234    0.3301   -2.4901 C   0  0  0  0  0  0
    1.3912   -0.0020   -3.4701 N   0  0  0  0  0  0
    1.5841   -3.3345   -2.8595 H   0  0  0  0  0  0
   -0.0270   -2.7043   -1.0436 H   0  0  0  0  0  0
   -0.7097   -0.2971   -0.8182 H   0  0  0  0  0  0
    0.2530    1.3736   -2.4237 H   0  0  0  0  0  0
  1  2  1  0  0  0
  2  7  1  0  0  0
  2  3  2  0  0  0
  3  4  1  0  0  0
  3  8  1  0  0  0
  4  5  2  0  0  0
  4  9  1  0  0  0
  5  6  1  0  0  0
  5 10  1  0  0  0
  6  7  2  0  0  0
  6 11  1  0  0  0
M  END
> <s_m_entry_id>
922

> <s_m_entry_name>
Spot_Xplore.std.52

> <s_m_Source_Path>
/Volumes/cluster/ddu/2448959/Work/2023/01_Fragment_screening_lib/1_Library_Construction/Work/SpotX/Ph4_Hypo_JC2

> <s_m_Source_File>
SpotX.maegz

> <i_m_Source_File_Index>
56

> <s_m_job_name>
ligprep_SpotXplore

> <i_lp_mmshare_version>
52144

> <s_epik_input>
SWMxW2NIXVtjSF1bY0hdW2NIXW4x

> <s_epik_cmdline>
J2VwaWtfcHl0aG9uJywgJy1waHQnLCAnMS4wJywgJy1waCcsICc3LjAnLCAnLXRuJywgJzgnLCAnLW1hJywgJzIwMCcsICctaW1hZScsICc8aW5maWxlLm1hZT4nLCAnLW9tYWUnLCAnPG91dGZpbGUubWFlPic=

> <r_lp_tautomer_probability>
1

> <r_epik_Ionization_Penalty>
  0.0000

> <r_epik_Ionization_Penalty_Charging>
  0.0000

> <r_epik_Ionization_Penalty_Neutral>
  0.0000

> <r_epik_State_Penalty>
  0.0000

> <r_epik_Charging_Adjusted_Penalty>
0

> <i_epik_Tot_Q>
0

> <i_epik_Tot_abs_Q>
0

> <i_f3d_flags>
0

> <s_lp_Force_Field>
OPLS_2005

> <r_lp_Energy>
1.817111

> <b_lp_Chiralities_Consistent>
1

> <s_lp_Variant>
mol_ID_52-1

> <s_m_subgroup_title>
ligprep_SpotXplore-out1

> <s_m_subgroupid>
ligprep_SpotXplore-out1

> <b_m_subgroup_collapsed>
0

$$$$
mol_ID_53
                    3D
 Schrodinger Suite 2020-4.
  9  9  0  0  1  0            999 V2000
   -6.3254   -2.8134    1.4755 Cl  0  0  0  0  0  0
   -4.8816   -2.9306    0.5884 C   0  0  0  0  0  0
   -4.6679   -3.6884   -0.5422 C   0  0  0  0  0  0
   -3.3502   -3.4593   -0.8983 N   0  0  0  0  0  0
   -2.8419   -2.6067   -0.0045 C   0  0  0  0  0  0
   -3.7142   -2.2423    0.9277 N   0  0  0  0  0  0
   -5.3183   -4.3455   -1.1004 H   0  0  0  0  0  0
   -2.8634   -3.8613   -1.6866 H   0  0  0  0  0  0
   -1.8233   -2.2490   -0.0362 H   0  0  0  0  0  0
  1  2  1  0  0  0
  2  6  1  0  0  0
  2  3  2  0  0  0
  3  4  1  0  0  0
  3  7  1  0  0  0
  4  5  1  0  0  0
  4  8  1  0  0  0
  5  6  2  0  0  0
  5  9  1  0  0  0
M  END
> <s_m_entry_id>
923

> <s_m_entry_name>
Spot_Xplore.std.53

> <s_m_Source_Path>
/Volumes/cluster/ddu/2448959/Work/2023/01_Fragment_screening_lib/1_Library_Construction/Work/SpotX/Ph4_Hypo_JC2

> <s_m_Source_File>
SpotX.maegz

> <i_m_Source_File_Index>
57

> <s_m_job_name>
ligprep_SpotXplore

> <i_lp_mmshare_version>
52144

> <s_epik_input>
Q2xjMVtjSF1bbkhdW2NIXW4x

> <s_epik_cmdline>
J2VwaWtfcHl0aG9uJywgJy1waHQnLCAnMS4wJywgJy1waCcsICc3LjAnLCAnLXRuJywgJzgnLCAnLW1hJywgJzIwMCcsICctaW1hZScsICc8aW5maWxlLm1hZT4nLCAnLW9tYWUnLCAnPG91dGZpbGUubWFlPic=

> <r_lp_tautomer_probability>
0.499999999999999

> <r_epik_Ionization_Penalty>
  0.0008

> <r_epik_Ionization_Penalty_Charging>
  0.0008

> <r_epik_Ionization_Penalty_Neutral>
  0.0000

> <r_epik_State_Penalty>
  0.2056

> <r_epik_Charging_Adjusted_Penalty>
0.206410331202894

> <i_epik_Tot_Q>
0

> <i_epik_Tot_abs_Q>
0

> <i_f3d_flags>
0

> <s_lp_Force_Field>
OPLS_2005

> <r_lp_Energy>
2.390094

> <b_lp_Chiralities_Consistent>
1

> <s_lp_Variant>
mol_ID_53-1

> <s_m_subgroup_title>
ligprep_SpotXplore-out1

> <s_m_subgroupid>
ligprep_SpotXplore-out1

> <b_m_subgroup_collapsed>
0

$$$$
mol_ID_53
                    3D
 Schrodinger Suite 2020-4.
  9  9  0  0  1  0            999 V2000
   -1.7648    2.3488    7.4196 Cl  0  0  0  0  0  0
   -0.6480    1.5251    6.4074 C   0  0  0  0  0  0
    0.7250    1.5084    6.3461 C   0  0  0  0  0  0
    1.1122    0.6487    5.3133 N   0  0  0  0  0  0
   -0.0342    0.1951    4.8091 C   0  0  0  0  0  0
   -1.1189    0.6826    5.4209 N   0  0  0  0  0  0
    1.4506    2.0343    6.9488 H   0  0  0  0  0  0
   -2.0839    0.4767    5.2056 H   0  0  0  0  0  0
   -0.0829   -0.5005    3.9843 H   0  0  0  0  0  0
  1  2  1  0  0  0
  2  3  2  0  0  0
  2  6  1  0  0  0
  3  7  1  0  0  0
  3  4  1  0  0  0
  4  5  2  0  0  0
  5  6  1  0  0  0
  5  9  1  0  0  0
  6  8  1  0  0  0
M  END
> <s_m_entry_id>
924

> <s_m_entry_name>
Spot_Xplore.std.53

> <s_m_Source_Path>
/Volumes/cluster/ddu/2448959/Work/2023/01_Fragment_screening_lib/1_Library_Construction/Work/SpotX/Ph4_Hypo_JC2

> <s_m_Source_File>
SpotX.maegz

> <i_m_Source_File_Index>
58

> <s_m_job_name>
ligprep_SpotXplore

> <i_lp_mmshare_version>
52144

> <s_epik_input>
Q2xjMVtjSF1bbkhdW2NIXW4x

> <s_epik_cmdline>
J2VwaWtfcHl0aG9uJywgJy1waHQnLCAnMS4wJywgJy1waCcsICc3LjAnLCAnLXRuJywgJzgnLCAnLW1hJywgJzIwMCcsICctaW1hZScsICc8aW5maWxlLm1hZT4nLCAnLW9tYWUnLCAnPG91dGZpbGUubWFlPic=

> <r_lp_tautomer_probability>
0.499999999999999

> <r_epik_Ionization_Penalty>
  0.0101

> <r_epik_Ionization_Penalty_Charging>
  0.0100

> <r_epik_Ionization_Penalty_Neutral>
  0.0001

> <r_epik_State_Penalty>
  0.7301

> <r_epik_Charging_Adjusted_Penalty>
0.740134181960144

> <i_epik_Tot_Q>
0

> <i_epik_Tot_abs_Q>
0

> <i_f3d_flags>
0

> <s_lp_Force_Field>
OPLS_2005

> <r_lp_Energy>
4.246294

> <b_lp_Chiralities_Consistent>
1

> <s_lp_Variant>
mol_ID_53-2

> <s_m_subgroup_title>
ligprep_SpotXplore-out1

> <s_m_subgroupid>
ligprep_SpotXplore-out1

> <b_m_subgroup_collapsed>
0

$$$$
mol_ID_54
                    3D
 Schrodinger Suite 2020-4.
 15 15  0  0  1  0            999 V2000
   -0.0404    0.0324   -0.0000 C   0  0  0  0  0  0
    1.4340   -0.0053   -0.0000 N   0  3  0  0  0  0
    2.1186    1.1681   -0.0000 C   0  0  0  0  0  0
    3.5272    1.1785   -0.0000 C   0  0  0  0  0  0
    4.2185   -0.0468   -0.0000 C   0  0  0  0  0  0
    3.4827   -1.2472   -0.0000 C   0  0  0  0  0  0
    2.0715   -1.2095    0.0000 C   0  0  0  0  0  0
    1.2054   -2.7078    0.0000 Cl  0  0  0  0  0  0
   -0.3952    1.0636   -0.0000 H   0  0  0  0  0  0
   -0.4007   -0.4751    0.8956 H   0  0  0  0  0  0
   -0.4007   -0.4751   -0.8956 H   0  0  0  0  0  0
    1.5336    2.0762   -0.0000 H   0  0  0  0  0  0
    4.0691    2.1133   -0.0000 H   0  0  0  0  0  0
    5.2987   -0.0665   -0.0000 H   0  0  0  0  0  0
    4.0003   -2.1955    0.0000 H   0  0  0  0  0  0
  1  2  1  0  0  0
  1  9  1  0  0  0
  1 10  1  0  0  0
  1 11  1  0  0  0
  2  7  1  0  0  0
  2  3  2  0  0  0
  3  4  1  0  0  0
  3 12  1  0  0  0
  4  5  2  0  0  0
  4 13  1  0  0  0
  5  6  1  0  0  0
  5 14  1  0  0  0
  6  7  2  0  0  0
  6 15  1  0  0  0
  7  8  1  0  0  0
M  CHG  1   2   1
M  END
> <s_m_entry_id>
925

> <s_m_entry_name>
Spot_Xplore.std.54

> <s_m_Source_Path>
/Volumes/cluster/ddu/2448959/Work/2023/01_Fragment_screening_lib/1_Library_Construction/Work/SpotX/Ph4_Hypo_JC2

> <s_m_Source_File>
SpotX.maegz

> <i_m_Source_File_Index>
59

> <s_m_job_name>
ligprep_SpotXplore

> <i_lp_mmshare_version>
52144

> <s_epik_input>
W0NIM11bbitdMVtjSF1bY0hdW2NIXVtjSF1jMUNs

> <s_epik_cmdline>
J2VwaWtfcHl0aG9uJywgJy1waHQnLCAnMS4wJywgJy1waCcsICc3LjAnLCAnLXRuJywgJzgnLCAnLW1hJywgJzIwMCcsICctaW1hZScsICc8aW5maWxlLm1hZT4nLCAnLW9tYWUnLCAnPG91dGZpbGUubWFlPic=

> <r_lp_tautomer_probability>
1

> <r_epik_Ionization_Penalty>
  0.0000

> <r_epik_Ionization_Penalty_Charging>
  0.0000

> <r_epik_Ionization_Penalty_Neutral>
  0.0000

> <r_epik_State_Penalty>
  0.0000

> <r_epik_Charging_Adjusted_Penalty>
0

> <i_epik_Tot_Q>
1

> <i_epik_Tot_abs_Q>
1

> <i_f3d_flags>
0

> <s_lp_Force_Field>
OPLS_2005

> <r_lp_Energy>
10.244377

> <b_lp_Chiralities_Consistent>
1

> <s_lp_Variant>
mol_ID_54-1

> <s_m_subgroup_title>
ligprep_SpotXplore-out1

> <s_m_subgroupid>
ligprep_SpotXplore-out1

> <b_m_subgroup_collapsed>
0

$$$$
mol_ID_55
                    3D
 Schrodinger Suite 2020-4.
 14 14  0  0  1  0            999 V2000
   -1.2350    0.0659   -0.0048 C   0  0  0  0  0  0
   -0.0146    0.0259   -0.0064 C   0  0  0  0  0  0
    1.4567   -0.0325   -0.0198 C   0  0  0  0  0  0
    1.9739   -1.3872    0.0340 N   0  0  0  0  0  0
    2.2605   -2.1517    1.1461 C   0  0  0  0  0  0
    2.7174   -3.3598    0.7027 C   0  0  0  0  0  0
    2.6721   -3.2385   -0.7144 C   0  0  0  0  0  0
    2.2272   -2.0573   -1.1117 N   0  0  0  0  0  0
   -2.3015    0.0972   -0.0062 H   0  0  0  0  0  0
    1.8194    0.4625   -0.9217 H   0  0  0  0  0  0
    1.8338    0.5265    0.8372 H   0  0  0  0  0  0
    2.1161   -1.7762    2.1483 H   0  0  0  0  0  0
    3.0345   -4.2023    1.2991 H   0  0  0  0  0  0
    2.9474   -3.9688   -1.4611 H   0  0  0  0  0  0
  1  2  3  0  0  0
  1  9  1  0  0  0
  2  3  1  0  0  0
  3  4  1  0  0  0
  3 10  1  0  0  0
  3 11  1  0  0  0
  4  8  1  0  0  0
  4  5  1  0  0  0
  5  6  2  0  0  0
  5 12  1  0  0  0
  6  7  1  0  0  0
  6 13  1  0  0  0
  7  8  2  0  0  0
  7 14  1  0  0  0
M  END
> <s_m_entry_id>
926

> <s_m_entry_name>
Spot_Xplore.std.55

> <s_m_Source_Path>
/Volumes/cluster/ddu/2448959/Work/2023/01_Fragment_screening_lib/1_Library_Construction/Work/SpotX/Ph4_Hypo_JC2

> <s_m_Source_File>
SpotX.maegz

> <i_m_Source_File_Index>
60

> <s_m_job_name>
ligprep_SpotXplore

> <i_lp_mmshare_version>
52144

> <s_epik_input>
W0NIXSNDW0NIMl1uMVtjSF1bY0hdW2NIXW4x

> <s_epik_cmdline>
J2VwaWtfcHl0aG9uJywgJy1waHQnLCAnMS4wJywgJy1waCcsICc3LjAnLCAnLXRuJywgJzgnLCAnLW1hJywgJzIwMCcsICctaW1hZScsICc8aW5maWxlLm1hZT4nLCAnLW9tYWUnLCAnPG91dGZpbGUubWFlPic=

> <r_lp_tautomer_probability>
1

> <r_epik_Ionization_Penalty>
  0.0000

> <r_epik_Ionization_Penalty_Charging>
  0.0000

> <r_epik_Ionization_Penalty_Neutral>
  0.0000

> <r_epik_State_Penalty>
  0.0000

> <r_epik_Charging_Adjusted_Penalty>
0

> <i_epik_Tot_Q>
0

> <i_epik_Tot_abs_Q>
0

> <i_f3d_flags>
0

> <s_lp_Force_Field>
OPLS_2005

> <r_lp_Energy>
1.915595

> <b_lp_Chiralities_Consistent>
1

> <s_lp_Variant>
mol_ID_55-1

> <s_m_subgroup_title>
ligprep_SpotXplore-out1

> <s_m_subgroupid>
ligprep_SpotXplore-out1

> <b_m_subgroup_collapsed>
0

$$$$
mol_ID_56
                    3D
 Schrodinger Suite 2020-4.
 13 13  0  0  1  0            999 V2000
   -0.6621    1.1814    0.0000 C   0  0  0  0  0  0
    0.0244    0.0235    0.0000 C   0  0  0  0  0  0
    1.4344   -0.0623    0.0000 N   0  0  0  0  0  0
    2.2524    1.0662    0.0000 C   0  0  0  0  0  0
    3.5448    0.5886   -0.0000 C   0  0  0  0  0  0
    3.5400   -0.8063   -0.0000 N   0  0  0  0  0  0
    2.2513   -1.1220   -0.0000 C   0  0  0  0  0  0
   -0.1978    2.1547   -0.0000 H   0  0  0  0  0  0
   -1.7419    1.1615    0.0000 H   0  0  0  0  0  0
   -0.4544   -0.9451    0.0000 H   0  0  0  0  0  0
    1.8960    2.0842    0.0000 H   0  0  0  0  0  0
    4.4740    1.1392   -0.0000 H   0  0  0  0  0  0
    1.8972   -2.1425   -0.0000 H   0  0  0  0  0  0
  1  2  2  0  0  0
  1  8  1  0  0  0
  1  9  1  0  0  0
  2  3  1  0  0  0
  2 10  1  0  0  0
  3  7  1  0  0  0
  3  4  1  0  0  0
  4  5  2  0  0  0
  4 11  1  0  0  0
  5  6  1  0  0  0
  5 12  1  0  0  0
  6  7  2  0  0  0
  7 13  1  0  0  0
M  END
> <s_m_entry_id>
927

> <s_m_entry_name>
Spot_Xplore.std.56

> <s_m_Source_Path>
/Volumes/cluster/ddu/2448959/Work/2023/01_Fragment_screening_lib/1_Library_Construction/Work/SpotX/Ph4_Hypo_JC2

> <s_m_Source_File>
SpotX.maegz

> <i_m_Source_File_Index>
61

> <s_m_job_name>
ligprep_SpotXplore

> <i_lp_mmshare_version>
52144

> <s_epik_input>
W0NIMl09W0NIXW4xW2NIXVtjSF1uW2NIXTE=

> <s_epik_cmdline>
J2VwaWtfcHl0aG9uJywgJy1waHQnLCAnMS4wJywgJy1waCcsICc3LjAnLCAnLXRuJywgJzgnLCAnLW1hJywgJzIwMCcsICctaW1hZScsICc8aW5maWxlLm1hZT4nLCAnLW9tYWUnLCAnPG91dGZpbGUubWFlPic=

> <r_epik_Ionization_Penalty>
  0.1962

> <r_epik_Ionization_Penalty_Charging>
  0.1962

> <r_epik_Ionization_Penalty_Neutral>
  0.0000

> <r_epik_State_Penalty>
  0.1860

> <r_epik_Charging_Adjusted_Penalty>
0.382226419559614

> <i_epik_Tot_Q>
0

> <i_epik_Tot_abs_Q>
0

> <i_f3d_flags>
0

> <s_lp_Force_Field>
OPLS_2005

> <r_lp_Energy>
7.340119

> <b_lp_Chiralities_Consistent>
1

> <s_lp_Variant>
mol_ID_56-1

> <s_m_subgroup_title>
ligprep_SpotXplore-out1

> <s_m_subgroupid>
ligprep_SpotXplore-out1

> <b_m_subgroup_collapsed>
0

$$$$
mol_ID_56
                    3D
 Schrodinger Suite 2020-4.
 14 14  0  0  1  0            999 V2000
   -0.6518    1.1717    0.0000 C   0  0  0  0  0  0
    0.0675    0.0333    0.0000 C   0  0  0  0  0  0
    1.4714   -0.0094   -0.0000 N   0  0  0  0  0  0
    2.2585   -1.1306   -0.0000 C   0  0  0  0  0  0
    3.5562   -0.6865   -0.0000 C   0  0  0  0  0  0
    3.5010    0.6833   -0.0000 N   0  3  0  0  0  0
    2.2294    1.0990   -0.0000 C   0  0  0  0  0  0
   -0.2137    2.1576   -0.0000 H   0  0  0  0  0  0
   -1.7309    1.1228    0.0000 H   0  0  0  0  0  0
   -0.3856   -0.9478    0.0000 H   0  0  0  0  0  0
    1.8515   -2.1316   -0.0000 H   0  0  0  0  0  0
    4.4910   -1.2283   -0.0000 H   0  0  0  0  0  0
    1.9101    2.1252    0.0000 H   0  0  0  0  0  0
    4.3066    1.2964   -0.0000 H   0  0  0  0  0  0
  1  2  2  0  0  0
  1  8  1  0  0  0
  1  9  1  0  0  0
  2  3  1  0  0  0
  2 10  1  0  0  0
  3  7  1  0  0  0
  3  4  1  0  0  0
  4  5  2  0  0  0
  4 11  1  0  0  0
  5  6  1  0  0  0
  5 12  1  0  0  0
  6  7  2  0  0  0
  6 14  1  0  0  0
  7 13  1  0  0  0
M  CHG  1   6   1
M  END
> <s_m_entry_id>
928

> <s_m_entry_name>
Spot_Xplore.std.56

> <s_m_Source_Path>
/Volumes/cluster/ddu/2448959/Work/2023/01_Fragment_screening_lib/1_Library_Construction/Work/SpotX/Ph4_Hypo_JC2

> <s_m_Source_File>
SpotX.maegz

> <i_m_Source_File_Index>
62

> <s_m_job_name>
ligprep_SpotXplore

> <i_lp_mmshare_version>
52144

> <s_epik_input>
W0NIMl09W0NIXW4xW2NIXVtjSF1uW2NIXTE=

> <s_epik_cmdline>
J2VwaWtfcHl0aG9uJywgJy1waHQnLCAnMS4wJywgJy1waCcsICc3LjAnLCAnLXRuJywgJzgnLCAnLW1hJywgJzIwMCcsICctaW1hZScsICc8aW5maWxlLm1hZT4nLCAnLW9tYWUnLCAnPG91dGZpbGUubWFlPic=

> <r_epik_Ionization_Penalty>
  0.7501

> <r_epik_Ionization_Penalty_Charging>
  0.0000

> <r_epik_Ionization_Penalty_Neutral>
  0.7501

> <r_epik_State_Penalty>
  0.7770

> <r_epik_Charging_Adjusted_Penalty>
0.777032149875681

> <i_epik_Tot_Q>
1

> <i_epik_Tot_abs_Q>
1

> <i_f3d_flags>
0

> <s_lp_Force_Field>
OPLS_2005

> <r_lp_Energy>
8.994197

> <b_lp_Chiralities_Consistent>
1

> <s_lp_Variant>
mol_ID_56-2

> <s_m_subgroup_title>
ligprep_SpotXplore-out1

> <s_m_subgroupid>
ligprep_SpotXplore-out1

> <b_m_subgroup_collapsed>
0

$$$$
mol_ID_57
                    3D
 Schrodinger Suite 2020-4.
 13 13  0  0  1  0            999 V2000
   -0.6868    1.1378   -0.0000 C   0  0  0  0  0  0
    0.0530    0.0151    0.0000 C   0  0  0  0  0  0
    1.4611    0.0612    0.0000 N   0  0  0  0  0  0
    2.1989   -1.1002    0.0000 C   0  0  0  0  0  0
    3.5083   -0.7084    0.0000 C   0  0  0  0  0  0
    3.4467    0.7179    0.0000 C   0  0  0  0  0  0
    2.2063    1.1850    0.0000 N   0  0  0  0  0  0
   -0.2426    2.1225   -0.0000 H   0  0  0  0  0  0
   -1.7651    1.0814   -0.0000 H   0  0  0  0  0  0
   -0.3606   -0.9833    0.0000 H   0  0  0  0  0  0
    1.7502   -2.0831    0.0000 H   0  0  0  0  0  0
    4.3812   -1.3441    0.0000 H   0  0  0  0  0  0
    4.2646    1.4233    0.0000 H   0  0  0  0  0  0
  1  2  2  0  0  0
  1  8  1  0  0  0
  1  9  1  0  0  0
  2  3  1  0  0  0
  2 10  1  0  0  0
  3  7  1  0  0  0
  3  4  1  0  0  0
  4  5  2  0  0  0
  4 11  1  0  0  0
  5  6  1  0  0  0
  5 12  1  0  0  0
  6  7  2  0  0  0
  6 13  1  0  0  0
M  END
> <s_m_entry_id>
929

> <s_m_entry_name>
Spot_Xplore.std.57

> <s_m_Source_Path>
/Volumes/cluster/ddu/2448959/Work/2023/01_Fragment_screening_lib/1_Library_Construction/Work/SpotX/Ph4_Hypo_JC2

> <s_m_Source_File>
SpotX.maegz

> <i_m_Source_File_Index>
63

> <s_m_job_name>
ligprep_SpotXplore

> <i_lp_mmshare_version>
52144

> <s_epik_input>
W0NIMl09W0NIXW4xW2NIXVtjSF1bY0hdbjE=

> <s_epik_cmdline>
J2VwaWtfcHl0aG9uJywgJy1waHQnLCAnMS4wJywgJy1waCcsICc3LjAnLCAnLXRuJywgJzgnLCAnLW1hJywgJzIwMCcsICctaW1hZScsICc8aW5maWxlLm1hZT4nLCAnLW9tYWUnLCAnPG91dGZpbGUubWFlPic=

> <r_lp_tautomer_probability>
1

> <r_epik_Ionization_Penalty>
  0.0001

> <r_epik_Ionization_Penalty_Charging>
  0.0000

> <r_epik_Ionization_Penalty_Neutral>
  0.0001

> <r_epik_State_Penalty>
  0.0000

> <r_epik_Charging_Adjusted_Penalty>
0

> <i_epik_Tot_Q>
0

> <i_epik_Tot_abs_Q>
0

> <i_f3d_flags>
0

> <s_lp_Force_Field>
OPLS_2005

> <r_lp_Energy>
4.424421

> <b_lp_Chiralities_Consistent>
1

> <s_lp_Variant>
mol_ID_57-1

> <s_m_subgroup_title>
ligprep_SpotXplore-out1

> <s_m_subgroupid>
ligprep_SpotXplore-out1

> <b_m_subgroup_collapsed>
0

$$$$
mol_ID_58
                    3D
 Schrodinger Suite 2020-4.
 16 16  0  0  1  0            999 V2000
   -0.0231   -0.0028   -0.0000 C   0  0  0  0  0  0
    1.4477    0.0050   -0.0000 N   0  3  0  0  0  0
    2.1174    1.1853   -0.0000 C   0  0  0  0  0  0
    3.5275    1.2061   -0.0000 C   0  0  0  0  0  0
    4.2339   -0.0148   -0.0000 C   0  0  0  0  0  0
    5.6873   -0.0243   -0.0000 C   0  0  0  0  0  0
    6.8439   -0.0316   -0.0000 N   0  0  0  0  0  0
    3.5103   -1.2257    0.0000 C   0  0  0  0  0  0
    2.1008   -1.1832    0.0000 C   0  0  0  0  0  0
   -0.4066    1.0183    0.0000 H   0  0  0  0  0  0
   -0.3646   -0.5250    0.8945 H   0  0  0  0  0  0
   -0.3646   -0.5250   -0.8945 H   0  0  0  0  0  0
    1.5210    2.0860   -0.0000 H   0  0  0  0  0  0
    4.0552    2.1497   -0.0000 H   0  0  0  0  0  0
    4.0233   -2.1772    0.0000 H   0  0  0  0  0  0
    1.4833   -2.0701    0.0000 H   0  0  0  0  0  0
  1  2  1  0  0  0
  1 10  1  0  0  0
  1 11  1  0  0  0
  1 12  1  0  0  0
  2  9  1  0  0  0
  2  3  2  0  0  0
  3  4  1  0  0  0
  3 13  1  0  0  0
  4  5  2  0  0  0
  4 14  1  0  0  0
  5  6  1  0  0  0
  5  8  1  0  0  0
  6  7  3  0  0  0
  8  9  2  0  0  0
  8 15  1  0  0  0
  9 16  1  0  0  0
M  CHG  1   2   1
M  END
> <s_m_entry_id>
930

> <s_m_entry_name>
Spot_Xplore.std.58

> <s_m_Source_Path>
/Volumes/cluster/ddu/2448959/Work/2023/01_Fragment_screening_lib/1_Library_Construction/Work/SpotX/Ph4_Hypo_JC2

> <s_m_Source_File>
SpotX.maegz

> <i_m_Source_File_Index>
64

> <s_m_job_name>
ligprep_SpotXplore

> <i_lp_mmshare_version>
52144

> <s_epik_input>
W0NIM11bbitdMVtjSF1bY0hdYyhDI04pW2NIXVtjSF0x

> <s_epik_cmdline>
J2VwaWtfcHl0aG9uJywgJy1waHQnLCAnMS4wJywgJy1waCcsICc3LjAnLCAnLXRuJywgJzgnLCAnLW1hJywgJzIwMCcsICctaW1hZScsICc8aW5maWxlLm1hZT4nLCAnLW9tYWUnLCAnPG91dGZpbGUubWFlPic=

> <r_lp_tautomer_probability>
1

> <r_epik_Ionization_Penalty>
  0.0000

> <r_epik_Ionization_Penalty_Charging>
  0.0000

> <r_epik_Ionization_Penalty_Neutral>
  0.0000

> <r_epik_State_Penalty>
  0.0000

> <r_epik_Charging_Adjusted_Penalty>
0

> <i_epik_Tot_Q>
1

> <i_epik_Tot_abs_Q>
1

> <i_f3d_flags>
0

> <s_lp_Force_Field>
OPLS_2005

> <r_lp_Energy>
10.104996

> <b_lp_Chiralities_Consistent>
1

> <s_lp_Variant>
mol_ID_58-1

> <s_m_subgroup_title>
ligprep_SpotXplore-out1

> <s_m_subgroupid>
ligprep_SpotXplore-out1

> <b_m_subgroup_collapsed>
0

$$$$
mol_ID_59
                    3D
 Schrodinger Suite 2020-4.
  8  8  0  0  1  0            999 V2000
    3.7751   -2.9333    6.3232 I   0  0  0  0  0  0
    2.7161   -2.9228    4.5205 C   0  0  0  0  0  0
    2.3739   -4.0488    3.8981 N   0  0  0  0  0  0
    1.6761   -3.7608    2.7202 C   0  0  0  0  0  0
    1.5103   -2.4147    2.4854 C   0  0  0  0  0  0
    2.2269   -1.4334    3.7400 S   0  0  0  0  0  0
    1.3314   -4.5784    2.1045 H   0  0  0  0  0  0
    1.0110   -1.9434    1.6519 H   0  0  0  0  0  0
  1  2  1  0  0  0
  2  6  1  0  0  0
  2  3  2  0  0  0
  3  4  1  0  0  0
  4  5  2  0  0  0
  4  7  1  0  0  0
  5  6  1  0  0  0
  5  8  1  0  0  0
M  END
> <s_m_entry_id>
931

> <s_m_entry_name>
Spot_Xplore.std.59

> <s_m_Source_Path>
/Volumes/cluster/ddu/2448959/Work/2023/01_Fragment_screening_lib/1_Library_Construction/Work/SpotX/Ph4_Hypo_JC2

> <s_m_Source_File>
SpotX.maegz

> <i_m_Source_File_Index>
65

> <s_m_job_name>
ligprep_SpotXplore

> <i_lp_mmshare_version>
52144

> <s_epik_input>
SWMxbltjSF1bY0hdczE=

> <s_epik_cmdline>
J2VwaWtfcHl0aG9uJywgJy1waHQnLCAnMS4wJywgJy1waCcsICc3LjAnLCAnLXRuJywgJzgnLCAnLW1hJywgJzIwMCcsICctaW1hZScsICc8aW5maWxlLm1hZT4nLCAnLW9tYWUnLCAnPG91dGZpbGUubWFlPic=

> <r_lp_tautomer_probability>
1

> <r_epik_Ionization_Penalty>
  0.0000

> <r_epik_Ionization_Penalty_Charging>
  0.0000

> <r_epik_Ionization_Penalty_Neutral>
  0.0000

> <r_epik_State_Penalty>
  0.0000

> <r_epik_Charging_Adjusted_Penalty>
0

> <i_epik_Tot_Q>
0

> <i_epik_Tot_abs_Q>
0

> <i_f3d_flags>
0

> <s_lp_Force_Field>
OPLS_2005

> <r_lp_Energy>
1.319766

> <b_lp_Chiralities_Consistent>
1

> <s_lp_Variant>
mol_ID_59-1

> <s_m_subgroup_title>
ligprep_SpotXplore-out1

> <s_m_subgroupid>
ligprep_SpotXplore-out1

> <b_m_subgroup_collapsed>
0

$$$$
mol_ID_60
                    3D
 Schrodinger Suite 2020-4.
 11 11  0  0  1  0            999 V2000
    6.5034    6.4455    0.4389 I   0  0  0  0  0  0
    4.6632    5.4627    0.2964 C   0  0  0  0  0  0
    3.4559    6.1878    0.3197 C   0  0  0  0  0  0
    2.2410    5.4819    0.2208 C   0  0  0  0  0  0
    2.2889    4.0780    0.1027 C   0  0  0  0  0  0
    3.4419    3.3744    0.0795 N   0  0  0  0  0  0
    4.6022    4.0596    0.1749 C   0  0  0  0  0  0
    3.4607    7.2639    0.4116 H   0  0  0  0  0  0
    1.2954    6.0035    0.2351 H   0  0  0  0  0  0
    1.3767    3.5049    0.0247 H   0  0  0  0  0  0
    5.5080    3.4717    0.1537 H   0  0  0  0  0  0
  1  2  1  0  0  0
  2  7  1  0  0  0
  2  3  2  0  0  0
  3  4  1  0  0  0
  3  8  1  0  0  0
  4  5  2  0  0  0
  4  9  1  0  0  0
  5  6  1  0  0  0
  5 10  1  0  0  0
  6  7  2  0  0  0
  7 11  1  0  0  0
M  END
> <s_m_entry_id>
932

> <s_m_entry_name>
Spot_Xplore.std.60

> <s_m_Source_Path>
/Volumes/cluster/ddu/2448959/Work/2023/01_Fragment_screening_lib/1_Library_Construction/Work/SpotX/Ph4_Hypo_JC2

> <s_m_Source_File>
SpotX.maegz

> <i_m_Source_File_Index>
66

> <s_m_job_name>
ligprep_SpotXplore

> <i_lp_mmshare_version>
52144

> <s_epik_input>
SWMxW2NIXVtjSF1bY0hdbltjSF0x

> <s_epik_cmdline>
J2VwaWtfcHl0aG9uJywgJy1waHQnLCAnMS4wJywgJy1waCcsICc3LjAnLCAnLXRuJywgJzgnLCAnLW1hJywgJzIwMCcsICctaW1hZScsICc8aW5maWxlLm1hZT4nLCAnLW9tYWUnLCAnPG91dGZpbGUubWFlPic=

> <r_lp_tautomer_probability>
1

> <r_epik_Ionization_Penalty>
  0.0005

> <r_epik_Ionization_Penalty_Charging>
  0.0000

> <r_epik_Ionization_Penalty_Neutral>
  0.0005

> <r_epik_State_Penalty>
  0.0000

> <r_epik_Charging_Adjusted_Penalty>
0

> <i_epik_Tot_Q>
0

> <i_epik_Tot_abs_Q>
0

> <i_f3d_flags>
0

> <s_lp_Force_Field>
OPLS_2005

> <r_lp_Energy>
2.863683

> <b_lp_Chiralities_Consistent>
1

> <s_lp_Variant>
mol_ID_60-1

> <s_m_subgroup_title>
ligprep_SpotXplore-out1

> <s_m_subgroupid>
ligprep_SpotXplore-out1

> <b_m_subgroup_collapsed>
0

$$$$
mol_ID_61
                    3D
 Schrodinger Suite 2020-4.
 13 13  0  0  1  0            999 V2000
   -1.2005    0.0040   -0.0002 C   0  0  0  0  0  0
    0.0206   -0.0018    0.0001 C   0  0  0  0  0  0
    1.4739    0.0030    0.0000 C   0  0  0  0  0  0
    2.1882    1.2185    0.0000 C   0  0  0  0  0  0
    3.5966    1.1671   -0.0000 C   0  0  0  0  0  0
    4.2972    0.0123   -0.0000 N   0  0  0  0  0  0
    3.6043   -1.1470   -0.0000 C   0  0  0  0  0  0
    2.1962   -1.2078    0.0000 C   0  0  0  0  0  0
   -2.2674    0.0079    0.0019 H   0  0  0  0  0  0
    1.6758    2.1697    0.0000 H   0  0  0  0  0  0
    4.1759    2.0787    0.0000 H   0  0  0  0  0  0
    4.1895   -2.0546   -0.0000 H   0  0  0  0  0  0
    1.6901   -2.1627    0.0000 H   0  0  0  0  0  0
  1  2  3  0  0  0
  1  9  1  0  0  0
  2  3  1  0  0  0
  3  8  1  0  0  0
  3  4  2  0  0  0
  4  5  1  0  0  0
  4 10  1  0  0  0
  5  6  2  0  0  0
  5 11  1  0  0  0
  6  7  1  0  0  0
  7  8  2  0  0  0
  7 12  1  0  0  0
  8 13  1  0  0  0
M  END
> <s_m_entry_id>
933

> <s_m_entry_name>
Spot_Xplore.std.61

> <s_m_Source_Path>
/Volumes/cluster/ddu/2448959/Work/2023/01_Fragment_screening_lib/1_Library_Construction/Work/SpotX/Ph4_Hypo_JC2

> <s_m_Source_File>
SpotX.maegz

> <i_m_Source_File_Index>
67

> <s_m_job_name>
ligprep_SpotXplore

> <i_lp_mmshare_version>
52144

> <s_epik_input>
W0NIXSNDYzFbY0hdW2NIXW5bY0hdW2NIXTE=

> <s_epik_cmdline>
J2VwaWtfcHl0aG9uJywgJy1waHQnLCAnMS4wJywgJy1waCcsICc3LjAnLCAnLXRuJywgJzgnLCAnLW1hJywgJzIwMCcsICctaW1hZScsICc8aW5maWxlLm1hZT4nLCAnLW9tYWUnLCAnPG91dGZpbGUubWFlPic=

> <r_lp_tautomer_probability>
1

> <r_epik_Ionization_Penalty>
  0.0006

> <r_epik_Ionization_Penalty_Charging>
  0.0000

> <r_epik_Ionization_Penalty_Neutral>
  0.0006

> <r_epik_State_Penalty>
  0.0000

> <r_epik_Charging_Adjusted_Penalty>
0

> <i_epik_Tot_Q>
0

> <i_epik_Tot_abs_Q>
0

> <i_f3d_flags>
0

> <s_lp_Force_Field>
OPLS_2005

> <r_lp_Energy>
1.363716

> <b_lp_Chiralities_Consistent>
1

> <s_lp_Variant>
mol_ID_61-1

> <s_m_subgroup_title>
ligprep_SpotXplore-out1

> <s_m_subgroupid>
ligprep_SpotXplore-out1

> <b_m_subgroup_collapsed>
0

$$$$
mol_ID_62
                    3D
 Schrodinger Suite 2020-4.
 11 11  0  0  1  0            999 V2000
   -1.1267    0.0105   -0.0000 N   0  0  0  0  0  0
    0.0302    0.0077   -0.0000 C   0  0  0  0  0  0
    1.4826    0.0046    0.0000 C   0  0  0  0  0  0
    2.2282    1.2018    0.0000 C   0  0  0  0  0  0
    3.5796    1.1943    0.0000 N   0  0  0  0  0  0
    4.1758   -0.0013    0.0000 C   0  0  0  0  0  0
    3.5743   -1.1944    0.0000 N   0  0  0  0  0  0
    2.2230   -1.1959   -0.0000 C   0  0  0  0  0  0
    1.7456    2.1685    0.0000 H   0  0  0  0  0  0
    5.2558   -0.0036    0.0000 H   0  0  0  0  0  0
    1.7363   -2.1606   -0.0000 H   0  0  0  0  0  0
  1  2  3  0  0  0
  2  3  1  0  0  0
  3  8  1  0  0  0
  3  4  2  0  0  0
  4  5  1  0  0  0
  4  9  1  0  0  0
  5  6  2  0  0  0
  6  7  1  0  0  0
  6 10  1  0  0  0
  7  8  2  0  0  0
  8 11  1  0  0  0
M  END
> <s_m_entry_id>
934

> <s_m_entry_name>
Spot_Xplore.std.62

> <s_m_Source_Path>
/Volumes/cluster/ddu/2448959/Work/2023/01_Fragment_screening_lib/1_Library_Construction/Work/SpotX/Ph4_Hypo_JC2

> <s_m_Source_File>
SpotX.maegz

> <i_m_Source_File_Index>
68

> <s_m_job_name>
ligprep_SpotXplore

> <i_lp_mmshare_version>
52144

> <s_epik_input>
TiNDYzFbY0hdbltjSF1uW2NIXTE=

> <s_epik_cmdline>
J2VwaWtfcHl0aG9uJywgJy1waHQnLCAnMS4wJywgJy1waCcsICc3LjAnLCAnLXRuJywgJzgnLCAnLW1hJywgJzIwMCcsICctaW1hZScsICc8aW5maWxlLm1hZT4nLCAnLW9tYWUnLCAnPG91dGZpbGUubWFlPic=

> <r_lp_tautomer_probability>
1

> <r_epik_Ionization_Penalty>
  0.0000

> <r_epik_Ionization_Penalty_Charging>
  0.0000

> <r_epik_Ionization_Penalty_Neutral>
  0.0000

> <r_epik_State_Penalty>
  0.0000

> <r_epik_Charging_Adjusted_Penalty>
0

> <i_epik_Tot_Q>
0

> <i_epik_Tot_abs_Q>
0

> <i_f3d_flags>
0

> <s_lp_Force_Field>
OPLS_2005

> <r_lp_Energy>
-1.541888

> <b_lp_Chiralities_Consistent>
1

> <s_lp_Variant>
mol_ID_62-1

> <s_epik_Chemistry_Notes>
This compound contains an electron-poor aromatic ring that is susceptible to covalent hydrolysis at low pH, typically resulting in measured values for nitrogen ring protonation that are around two units higher than predicted values.

> <s_m_subgroup_title>
ligprep_SpotXplore-out1

> <s_m_subgroupid>
ligprep_SpotXplore-out1

> <b_m_subgroup_collapsed>
0

$$$$
mol_ID_63
                    3D
 Schrodinger Suite 2020-4.
 12 12  0  0  1  0            999 V2000
   -1.1827    0.0019   -0.0004 C   0  0  0  0  0  0
    0.0385   -0.0029    0.0004 C   0  0  0  0  0  0
    1.4912   -0.0174    0.0000 C   0  0  0  0  0  0
    2.2144    1.1973   -0.0000 C   0  0  0  0  0  0
    3.5662    1.2238   -0.0000 N   0  0  0  0  0  0
    4.1938    0.0268   -0.0000 C   0  0  0  0  0  0
    3.4750   -1.1876   -0.0000 C   0  0  0  0  0  0
    2.1233   -1.2134   -0.0000 N   0  0  0  0  0  0
   -2.2495    0.0069    0.0019 H   0  0  0  0  0  0
    1.7107    2.1533    0.0000 H   0  0  0  0  0  0
    5.2737    0.0373    0.0000 H   0  0  0  0  0  0
    3.9858   -2.1392   -0.0000 H   0  0  0  0  0  0
  1  2  3  0  0  0
  1  9  1  0  0  0
  2  3  1  0  0  0
  3  8  1  0  0  0
  3  4  2  0  0  0
  4  5  1  0  0  0
  4 10  1  0  0  0
  5  6  2  0  0  0
  6  7  1  0  0  0
  6 11  1  0  0  0
  7  8  2  0  0  0
  7 12  1  0  0  0
M  END
> <s_m_entry_id>
935

> <s_m_entry_name>
Spot_Xplore.std.63

> <s_m_Source_Path>
/Volumes/cluster/ddu/2448959/Work/2023/01_Fragment_screening_lib/1_Library_Construction/Work/SpotX/Ph4_Hypo_JC2

> <s_m_Source_File>
SpotX.maegz

> <i_m_Source_File_Index>
69

> <s_m_job_name>
ligprep_SpotXplore

> <i_lp_mmshare_version>
52144

> <s_epik_input>
W0NIXSNDYzFbY0hdbltjSF1bY0hdbjE=

> <s_epik_cmdline>
J2VwaWtfcHl0aG9uJywgJy1waHQnLCAnMS4wJywgJy1waCcsICc3LjAnLCAnLXRuJywgJzgnLCAnLW1hJywgJzIwMCcsICctaW1hZScsICc8aW5maWxlLm1hZT4nLCAnLW9tYWUnLCAnPG91dGZpbGUubWFlPic=

> <r_lp_tautomer_probability>
1

> <r_epik_Ionization_Penalty>
  0.0000

> <r_epik_Ionization_Penalty_Charging>
  0.0000

> <r_epik_Ionization_Penalty_Neutral>
  0.0000

> <r_epik_State_Penalty>
  0.0000

> <r_epik_Charging_Adjusted_Penalty>
0

> <i_epik_Tot_Q>
0

> <i_epik_Tot_abs_Q>
0

> <i_f3d_flags>
0

> <s_lp_Force_Field>
OPLS_2005

> <r_lp_Energy>
9.42376

> <b_lp_Chiralities_Consistent>
1

> <s_lp_Variant>
mol_ID_63-1

> <s_m_subgroup_title>
ligprep_SpotXplore-out1

> <s_m_subgroupid>
ligprep_SpotXplore-out1

> <b_m_subgroup_collapsed>
0

$$$$
mol_ID_64
                    3D
 Schrodinger Suite 2020-4.
 13 13  0  0  1  0            999 V2000
   -0.7199    1.1401    0.0000 C   0  0  0  0  0  0
    0.0765    0.0603    0.0000 C   0  0  0  0  0  0
    1.5038    0.0278   -0.0000 C   0  0  0  0  0  0
    2.4424    1.0375   -0.0000 C   0  0  0  0  0  0
    3.7259    0.4850   -0.0000 N   0  0  0  0  0  0
    3.5157   -0.8269   -0.0000 C   0  0  0  0  0  0
    2.2206   -1.1560    0.0000 N   0  0  0  0  0  0
   -0.3122    2.1405   -0.0000 H   0  0  0  0  0  0
   -1.7949    1.0360    0.0000 H   0  0  0  0  0  0
   -0.4065   -0.9062    0.0000 H   0  0  0  0  0  0
    2.2975    2.1078   -0.0000 H   0  0  0  0  0  0
    4.3132   -1.5551   -0.0000 H   0  0  0  0  0  0
    1.8392   -2.0911    0.0000 H   0  0  0  0  0  0
  1  2  2  0  0  0
  1  8  1  0  0  0
  1  9  1  0  0  0
  2  3  1  0  0  0
  2 10  1  0  0  0
  3  7  1  0  0  0
  3  4  2  0  0  0
  4  5  1  0  0  0
  4 11  1  0  0  0
  5  6  2  0  0  0
  6  7  1  0  0  0
  6 12  1  0  0  0
  7 13  1  0  0  0
M  END
> <s_m_entry_id>
936

> <s_m_entry_name>
Spot_Xplore.std.64

> <s_m_Source_Path>
/Volumes/cluster/ddu/2448959/Work/2023/01_Fragment_screening_lib/1_Library_Construction/Work/SpotX/Ph4_Hypo_JC2

> <s_m_Source_File>
SpotX.maegz

> <i_m_Source_File_Index>
70

> <s_m_job_name>
ligprep_SpotXplore

> <i_lp_mmshare_version>
52144

> <s_epik_input>
W0NIMl09W0NIXWMxW2NIXVtuSF1bY0hdbjE=

> <s_epik_cmdline>
J2VwaWtfcHl0aG9uJywgJy1waHQnLCAnMS4wJywgJy1waCcsICc3LjAnLCAnLXRuJywgJzgnLCAnLW1hJywgJzIwMCcsICctaW1hZScsICc8aW5maWxlLm1hZT4nLCAnLW9tYWUnLCAnPG91dGZpbGUubWFlPic=

> <r_epik_Ionization_Penalty>
  0.1962

> <r_epik_Ionization_Penalty_Charging>
  0.1962

> <r_epik_Ionization_Penalty_Neutral>
  0.0000

> <r_epik_State_Penalty>
  0.3212

> <r_epik_Charging_Adjusted_Penalty>
0.517398420249487

> <i_epik_Tot_Q>
0

> <i_epik_Tot_abs_Q>
0

> <i_f3d_flags>
0

> <s_lp_Force_Field>
OPLS_2005

> <r_lp_Energy>
3.723137

> <b_lp_Chiralities_Consistent>
1

> <s_lp_Variant>
mol_ID_64-1

> <s_m_subgroup_title>
ligprep_SpotXplore-out1

> <s_m_subgroupid>
ligprep_SpotXplore-out1

> <b_m_subgroup_collapsed>
0

$$$$
mol_ID_64
                    3D
 Schrodinger Suite 2020-4.
 14 14  0  0  1  0            999 V2000
   -0.6724    1.1596    0.0000 C   0  0  0  0  0  0
    0.0537    0.0307    0.0000 C   0  0  0  0  0  0
    1.5194   -0.0196    0.0000 C   0  0  0  0  0  0
    2.4095    1.0221    0.0000 C   0  0  0  0  0  0
    3.6512    0.4402    0.0000 N   0  0  0  0  0  0
    3.5422   -0.8964   -0.0000 C   0  0  0  0  0  0
    2.2349   -1.1837   -0.0000 N   0  3  0  0  0  0
   -0.2075    2.1346   -0.0000 H   0  0  0  0  0  0
   -1.7520    1.1207    0.0000 H   0  0  0  0  0  0
   -0.4618   -0.9188    0.0000 H   0  0  0  0  0  0
    2.2639    2.0927    0.0000 H   0  0  0  0  0  0
    4.5285    0.9458    0.0000 H   0  0  0  0  0  0
    4.3519   -1.6043   -0.0000 H   0  0  0  0  0  0
    1.8413   -2.1163   -0.0000 H   0  0  0  0  0  0
  1  2  2  0  0  0
  1  8  1  0  0  0
  1  9  1  0  0  0
  2  3  1  0  0  0
  2 10  1  0  0  0
  3  7  1  0  0  0
  3  4  2  0  0  0
  4  5  1  0  0  0
  4 11  1  0  0  0
  5  6  1  0  0  0
  5 12  1  0  0  0
  6  7  2  0  0  0
  6 13  1  0  0  0
  7 14  1  0  0  0
M  CHG  1   7   1
M  END
> <s_m_entry_id>
937

> <s_m_entry_name>
Spot_Xplore.std.64

> <s_m_Source_Path>
/Volumes/cluster/ddu/2448959/Work/2023/01_Fragment_screening_lib/1_Library_Construction/Work/SpotX/Ph4_Hypo_JC2

> <s_m_Source_File>
SpotX.maegz

> <i_m_Source_File_Index>
71

> <s_m_job_name>
ligprep_SpotXplore

> <i_lp_mmshare_version>
52144

> <s_epik_input>
W0NIMl09W0NIXWMxW2NIXVtuSF1bY0hdbjE=

> <s_epik_cmdline>
J2VwaWtfcHl0aG9uJywgJy1waHQnLCAnMS4wJywgJy1waCcsICc3LjAnLCAnLXRuJywgJzgnLCAnLW1hJywgJzIwMCcsICctaW1hZScsICc8aW5maWxlLm1hZT4nLCAnLW9tYWUnLCAnPG91dGZpbGUubWFlPic=

> <r_epik_Ionization_Penalty>
  1.1471

> <r_epik_Ionization_Penalty_Charging>
  0.0000

> <r_epik_Ionization_Penalty_Neutral>
  1.1471

> <r_epik_State_Penalty>
  0.9122

> <r_epik_Charging_Adjusted_Penalty>
0.912204150565554

> <i_epik_Tot_Q>
1

> <i_epik_Tot_abs_Q>
1

> <i_f3d_flags>
0

> <s_lp_Force_Field>
OPLS_2005

> <r_lp_Energy>
5.778646

> <b_lp_Chiralities_Consistent>
1

> <s_lp_Variant>
mol_ID_64-2

> <s_m_subgroup_title>
ligprep_SpotXplore-out1

> <s_m_subgroupid>
ligprep_SpotXplore-out1

> <b_m_subgroup_collapsed>
0

$$$$
mol_ID_64
                    3D
 Schrodinger Suite 2020-4.
 13 13  0  0  1  0            999 V2000
   -0.7254    1.1342    0.0000 C   0  0  0  0  0  0
    0.0353    0.0279    0.0000 C   0  0  0  0  0  0
    1.5026    0.0199    0.0000 C   0  0  0  0  0  0
    2.2915   -1.1077    0.0000 C   0  0  0  0  0  0
    3.5906   -0.6275    0.0000 N   0  0  0  0  0  0
    3.5248    0.7093    0.0000 C   0  0  0  0  0  0
    2.2819    1.1793    0.0000 N   0  0  0  0  0  0
   -0.2882    2.1220   -0.0000 H   0  0  0  0  0  0
   -1.8031    1.0638    0.0000 H   0  0  0  0  0  0
   -0.4505   -0.9370    0.0000 H   0  0  0  0  0  0
    2.0514   -2.1607    0.0000 H   0  0  0  0  0  0
    4.4340   -1.1831    0.0000 H   0  0  0  0  0  0
    4.3977    1.3453    0.0000 H   0  0  0  0  0  0
  1  2  2  0  0  0
  1  8  1  0  0  0
  1  9  1  0  0  0
  2  3  1  0  0  0
  2 10  1  0  0  0
  3  7  1  0  0  0
  3  4  2  0  0  0
  4  5  1  0  0  0
  4 11  1  0  0  0
  5  6  1  0  0  0
  5 12  1  0  0  0
  6  7  2  0  0  0
  6 13  1  0  0  0
M  END
> <s_m_entry_id>
938

> <s_m_entry_name>
Spot_Xplore.std.64

> <s_m_Source_Path>
/Volumes/cluster/ddu/2448959/Work/2023/01_Fragment_screening_lib/1_Library_Construction/Work/SpotX/Ph4_Hypo_JC2

> <s_m_Source_File>
SpotX.maegz

> <i_m_Source_File_Index>
72

> <s_m_job_name>
ligprep_SpotXplore

> <i_lp_mmshare_version>
52144

> <s_epik_input>
W0NIMl09W0NIXWMxW2NIXVtuSF1bY0hdbjE=

> <s_epik_cmdline>
J2VwaWtfcHl0aG9uJywgJy1waHQnLCAnMS4wJywgJy1waCcsICc3LjAnLCAnLXRuJywgJzgnLCAnLW1hJywgJzIwMCcsICctaW1hZScsICc8aW5maWxlLm1hZT4nLCAnLW9tYWUnLCAnPG91dGZpbGUubWFlPic=

> <r_epik_Ionization_Penalty>
  0.4247

> <r_epik_Ionization_Penalty_Charging>
  0.4247

> <r_epik_Ionization_Penalty_Neutral>
  0.0000

> <r_epik_State_Penalty>
  0.9419

> <r_epik_Charging_Adjusted_Penalty>
1.3666052555045

> <i_epik_Tot_Q>
0

> <i_epik_Tot_abs_Q>
0

> <i_f3d_flags>
0

> <s_lp_Force_Field>
OPLS_2005

> <r_lp_Energy>
3.82443

> <b_lp_Chiralities_Consistent>
1

> <s_lp_Variant>
mol_ID_64-3

> <s_m_subgroup_title>
ligprep_SpotXplore-out1

> <s_m_subgroupid>
ligprep_SpotXplore-out1

> <b_m_subgroup_collapsed>
0

$$$$
mol_ID_65
                    3D
 Schrodinger Suite 2020-4.
 13 13  0  0  1  0            999 V2000
   -0.7133    1.1540    0.0000 C   0  0  0  0  0  0
    0.0442    0.0453    0.0000 C   0  0  0  0  0  0
    1.4783    0.0304    0.0000 C   0  0  0  0  0  0
    2.3370   -1.1086   -0.0000 C   0  0  0  0  0  0
    3.6226   -0.7912   -0.0000 N   0  0  0  0  0  0
    3.6179    0.5545    0.0000 N   0  0  0  0  0  0
    2.3494    1.0857    0.0000 C   0  0  0  0  0  0
   -0.2762    2.1417    0.0000 H   0  0  0  0  0  0
   -1.7912    1.0853    0.0000 H   0  0  0  0  0  0
   -0.4737   -0.9029    0.0000 H   0  0  0  0  0  0
    2.0634   -2.1535   -0.0000 H   0  0  0  0  0  0
    4.4752    1.0888    0.0000 H   0  0  0  0  0  0
    2.1781    2.1522    0.0000 H   0  0  0  0  0  0
  1  2  2  0  0  0
  1  8  1  0  0  0
  1  9  1  0  0  0
  2  3  1  0  0  0
  2 10  1  0  0  0
  3  7  2  0  0  0
  3  4  1  0  0  0
  4  5  2  0  0  0
  4 11  1  0  0  0
  5  6  1  0  0  0
  6  7  1  0  0  0
  6 12  1  0  0  0
  7 13  1  0  0  0
M  END
> <s_m_entry_id>
939

> <s_m_entry_name>
Spot_Xplore.std.65

> <s_m_Source_Path>
/Volumes/cluster/ddu/2448959/Work/2023/01_Fragment_screening_lib/1_Library_Construction/Work/SpotX/Ph4_Hypo_JC2

> <s_m_Source_File>
SpotX.maegz

> <i_m_Source_File_Index>
73

> <s_m_job_name>
ligprep_SpotXplore

> <i_lp_mmshare_version>
52144

> <s_epik_input>
W0NIMl09W0NIXWMxW2NIXW5bbkhdW2NIXTE=

> <s_epik_cmdline>
J2VwaWtfcHl0aG9uJywgJy1waHQnLCAnMS4wJywgJy1waCcsICc3LjAnLCAnLXRuJywgJzgnLCAnLW1hJywgJzIwMCcsICctaW1hZScsICc8aW5maWxlLm1hZT4nLCAnLW9tYWUnLCAnPG91dGZpbGUubWFlPic=

> <r_lp_tautomer_probability>
1

> <r_epik_Ionization_Penalty>
  0.0000

> <r_epik_Ionization_Penalty_Charging>
  0.0000

> <r_epik_Ionization_Penalty_Neutral>
  0.0000

> <r_epik_State_Penalty>
  0.0000

> <r_epik_Charging_Adjusted_Penalty>
0

> <i_epik_Tot_Q>
0

> <i_epik_Tot_abs_Q>
0

> <i_f3d_flags>
0

> <s_lp_Force_Field>
OPLS_2005

> <r_lp_Energy>
2.165338

> <b_lp_Chiralities_Consistent>
1

> <s_lp_Variant>
mol_ID_65-1

> <s_m_subgroup_title>
ligprep_SpotXplore-out1

> <s_m_subgroupid>
ligprep_SpotXplore-out1

> <b_m_subgroup_collapsed>
0

$$$$
mol_ID_66
                    3D
 Schrodinger Suite 2020-4.
 14 14  0  0  1  0            999 V2000
   -0.0306   -0.0227    0.0000 C   0  0  0  0  0  0
    1.4696    0.0247   -0.0000 C   0  0  0  0  0  0
    2.1709   -1.0992   -0.0000 N   0  0  0  0  0  0
    3.5250   -0.7231   -0.0000 O   0  0  0  0  0  0
    3.6070    0.6349   -0.0000 C   0  0  0  0  0  0
    4.9705    1.2374   -0.0000 C   0  0  0  0  0  0
    2.3427    1.1423   -0.0000 C   0  0  0  0  0  0
    1.8965    2.8099   -0.0000 Cl  0  0  0  0  0  0
   -0.4609    0.9788    0.0000 H   0  0  0  0  0  0
   -0.4060   -0.5435    0.8811 H   0  0  0  0  0  0
   -0.4060   -0.5435   -0.8811 H   0  0  0  0  0  0
    4.9174    2.3262   -0.0000 H   0  0  0  0  0  0
    5.5295    0.9268   -0.8827 H   0  0  0  0  0  0
    5.5295    0.9268    0.8827 H   0  0  0  0  0  0
  1  2  1  0  0  0
  1  9  1  0  0  0
  1 10  1  0  0  0
  1 11  1  0  0  0
  2  7  1  0  0  0
  2  3  2  0  0  0
  3  4  1  0  0  0
  4  5  1  0  0  0
  5  6  1  0  0  0
  5  7  2  0  0  0
  6 12  1  0  0  0
  6 13  1  0  0  0
  6 14  1  0  0  0
  7  8  1  0  0  0
M  END
> <s_m_entry_id>
940

> <s_m_entry_name>
Spot_Xplore.std.66

> <s_m_Source_Path>
/Volumes/cluster/ddu/2448959/Work/2023/01_Fragment_screening_lib/1_Library_Construction/Work/SpotX/Ph4_Hypo_JC2

> <s_m_Source_File>
SpotX.maegz

> <i_m_Source_File_Index>
74

> <s_m_job_name>
ligprep_SpotXplore

> <i_lp_mmshare_version>
52144

> <s_epik_input>
W0NIM11jMW5vYyhbQ0gzXSljMUNs

> <s_epik_cmdline>
J2VwaWtfcHl0aG9uJywgJy1waHQnLCAnMS4wJywgJy1waCcsICc3LjAnLCAnLXRuJywgJzgnLCAnLW1hJywgJzIwMCcsICctaW1hZScsICc8aW5maWxlLm1hZT4nLCAnLW9tYWUnLCAnPG91dGZpbGUubWFlPic=

> <r_lp_tautomer_probability>
1

> <r_epik_Ionization_Penalty>
  0.0000

> <r_epik_Ionization_Penalty_Charging>
  0.0000

> <r_epik_Ionization_Penalty_Neutral>
  0.0000

> <r_epik_State_Penalty>
  0.0000

> <r_epik_Charging_Adjusted_Penalty>
0

> <i_epik_Tot_Q>
0

> <i_epik_Tot_abs_Q>
0

> <i_f3d_flags>
0

> <s_lp_Force_Field>
OPLS_2005

> <r_lp_Energy>
1.115314

> <b_lp_Chiralities_Consistent>
1

> <s_lp_Variant>
mol_ID_66-1

> <s_m_subgroup_title>
ligprep_SpotXplore-out1

> <s_m_subgroupid>
ligprep_SpotXplore-out1

> <b_m_subgroup_collapsed>
0

$$$$
mol_ID_67
                    3D
 Schrodinger Suite 2020-4.
  9  9  0  0  1  0            999 V2000
   -1.1270   -0.0048   -0.0000 N   0  0  0  0  0  0
    0.0302   -0.0076   -0.0000 C   0  0  0  0  0  0
    1.4467    0.0111    0.0000 C   0  0  0  0  0  0
    2.2028    1.1112    0.0000 N   0  0  0  0  0  0
    3.5679    0.8107    0.0000 C   0  0  0  0  0  0
    3.8336   -0.5360    0.0000 C   0  0  0  0  0  0
    2.3707   -1.4848    0.0000 S   0  0  0  0  0  0
    4.2831    1.6199    0.0000 H   0  0  0  0  0  0
    4.7964   -1.0251    0.0000 H   0  0  0  0  0  0
  1  2  3  0  0  0
  2  3  1  0  0  0
  3  7  1  0  0  0
  3  4  2  0  0  0
  4  5  1  0  0  0
  5  6  2  0  0  0
  5  8  1  0  0  0
  6  7  1  0  0  0
  6  9  1  0  0  0
M  END
> <s_m_entry_id>
941

> <s_m_entry_name>
Spot_Xplore.std.67

> <s_m_Source_Path>
/Volumes/cluster/ddu/2448959/Work/2023/01_Fragment_screening_lib/1_Library_Construction/Work/SpotX/Ph4_Hypo_JC2

> <s_m_Source_File>
SpotX.maegz

> <i_m_Source_File_Index>
75

> <s_m_job_name>
ligprep_SpotXplore

> <i_lp_mmshare_version>
52144

> <s_epik_input>
TiNDYzFuW2NIXVtjSF1zMQ==

> <s_epik_cmdline>
J2VwaWtfcHl0aG9uJywgJy1waHQnLCAnMS4wJywgJy1waCcsICc3LjAnLCAnLXRuJywgJzgnLCAnLW1hJywgJzIwMCcsICctaW1hZScsICc8aW5maWxlLm1hZT4nLCAnLW9tYWUnLCAnPG91dGZpbGUubWFlPic=

> <r_lp_tautomer_probability>
1

> <r_epik_Ionization_Penalty>
  0.0000

> <r_epik_Ionization_Penalty_Charging>
  0.0000

> <r_epik_Ionization_Penalty_Neutral>
  0.0000

> <r_epik_State_Penalty>
  0.0000

> <r_epik_Charging_Adjusted_Penalty>
0

> <i_epik_Tot_Q>
0

> <i_epik_Tot_abs_Q>
0

> <i_f3d_flags>
0

> <s_lp_Force_Field>
OPLS_2005

> <r_lp_Energy>
1.324896

> <b_lp_Chiralities_Consistent>
1

> <s_lp_Variant>
mol_ID_67-1

> <s_m_subgroup_title>
ligprep_SpotXplore-out1

> <s_m_subgroupid>
ligprep_SpotXplore-out1

> <b_m_subgroup_collapsed>
0

$$$$
mol_ID_68
                    3D
 Schrodinger Suite 2020-4.
 11 11  0  0  1  0            999 V2000
    0.0471   -5.2821   -4.2069 I   0  0  0  0  0  0
    0.0418   -4.1949   -2.4209 C   0  0  0  0  0  0
    0.0230   -2.7868   -2.4396 C   0  0  0  0  0  0
    0.0202   -2.1019   -1.2080 C   0  0  0  0  0  0
    0.0347   -2.7279   -0.0111 N   0  0  0  0  0  0
    0.0528   -4.0785   -0.0046 C   0  0  0  0  0  0
    0.0571   -4.8581   -1.1786 C   0  0  0  0  0  0
    0.0109   -2.2442   -3.3733 H   0  0  0  0  0  0
    0.0059   -1.0224   -1.1839 H   0  0  0  0  0  0
    0.0641   -4.5528    0.9655 H   0  0  0  0  0  0
    0.0717   -5.9366   -1.1253 H   0  0  0  0  0  0
  1  2  1  0  0  0
  2  7  1  0  0  0
  2  3  2  0  0  0
  3  4  1  0  0  0
  3  8  1  0  0  0
  4  5  2  0  0  0
  4  9  1  0  0  0
  5  6  1  0  0  0
  6  7  2  0  0  0
  6 10  1  0  0  0
  7 11  1  0  0  0
M  END
> <s_m_entry_id>
942

> <s_m_entry_name>
Spot_Xplore.std.68

> <s_m_Source_Path>
/Volumes/cluster/ddu/2448959/Work/2023/01_Fragment_screening_lib/1_Library_Construction/Work/SpotX/Ph4_Hypo_JC2

> <s_m_Source_File>
SpotX.maegz

> <i_m_Source_File_Index>
76

> <s_m_job_name>
ligprep_SpotXplore

> <i_lp_mmshare_version>
52144

> <s_epik_input>
SWMxW2NIXVtjSF1uW2NIXVtjSF0x

> <s_epik_cmdline>
J2VwaWtfcHl0aG9uJywgJy1waHQnLCAnMS4wJywgJy1waCcsICc3LjAnLCAnLXRuJywgJzgnLCAnLW1hJywgJzIwMCcsICctaW1hZScsICc8aW5maWxlLm1hZT4nLCAnLW9tYWUnLCAnPG91dGZpbGUubWFlPic=

> <r_lp_tautomer_probability>
1

> <r_epik_Ionization_Penalty>
  0.0013

> <r_epik_Ionization_Penalty_Charging>
  0.0000

> <r_epik_Ionization_Penalty_Neutral>
  0.0013

> <r_epik_State_Penalty>
  0.0000

> <r_epik_Charging_Adjusted_Penalty>
0

> <i_epik_Tot_Q>
0

> <i_epik_Tot_abs_Q>
0

> <i_f3d_flags>
0

> <s_lp_Force_Field>
OPLS_2005

> <r_lp_Energy>
1.226732

> <b_lp_Chiralities_Consistent>
1

> <s_lp_Variant>
mol_ID_68-1

> <s_m_subgroup_title>
ligprep_SpotXplore-out1

> <s_m_subgroupid>
ligprep_SpotXplore-out1

> <b_m_subgroup_collapsed>
0

$$$$
mol_ID_69
                    3D
 Schrodinger Suite 2020-4.
 10 10  0  0  1  0            999 V2000
    5.3152   -1.5842   -0.5525 Cl  0  0  0  0  0  0
    4.2450   -0.5794    0.3528 C   0  0  0  0  0  0
    2.9587   -0.9417    0.4019 N   0  0  0  0  0  0
    2.1159   -0.1587    1.1093 C   0  0  0  0  0  0
    2.5641    0.9987    1.7745 C   0  0  0  0  0  0
    3.9373    1.2876    1.6572 C   0  0  0  0  0  0
    4.7706    0.4971    0.9470 N   0  0  0  0  0  0
    1.0788   -0.4576    1.1445 H   0  0  0  0  0  0
    1.8939    1.6279    2.3413 H   0  0  0  0  0  0
    4.3688    2.1551    2.1343 H   0  0  0  0  0  0
  1  2  1  0  0  0
  2  7  1  0  0  0
  2  3  2  0  0  0
  3  4  1  0  0  0
  4  5  2  0  0  0
  4  8  1  0  0  0
  5  6  1  0  0  0
  5  9  1  0  0  0
  6  7  2  0  0  0
  6 10  1  0  0  0
M  END
> <s_m_entry_id>
943

> <s_m_entry_name>
Spot_Xplore.std.69

> <s_m_Source_Path>
/Volumes/cluster/ddu/2448959/Work/2023/01_Fragment_screening_lib/1_Library_Construction/Work/SpotX/Ph4_Hypo_JC2

> <s_m_Source_File>
SpotX.maegz

> <i_m_Source_File_Index>
77

> <s_m_job_name>
ligprep_SpotXplore

> <i_lp_mmshare_version>
52144

> <s_epik_input>
Q2xjMW5bY0hdW2NIXVtjSF1uMQ==

> <s_epik_cmdline>
J2VwaWtfcHl0aG9uJywgJy1waHQnLCAnMS4wJywgJy1waCcsICc3LjAnLCAnLXRuJywgJzgnLCAnLW1hJywgJzIwMCcsICctaW1hZScsICc8aW5maWxlLm1hZT4nLCAnLW9tYWUnLCAnPG91dGZpbGUubWFlPic=

> <r_lp_tautomer_probability>
1

> <r_epik_Ionization_Penalty>
  0.0000

> <r_epik_Ionization_Penalty_Charging>
  0.0000

> <r_epik_Ionization_Penalty_Neutral>
  0.0000

> <r_epik_State_Penalty>
  0.0000

> <r_epik_Charging_Adjusted_Penalty>
0

> <i_epik_Tot_Q>
0

> <i_epik_Tot_abs_Q>
0

> <i_f3d_flags>
0

> <s_lp_Force_Field>
OPLS_2005

> <r_lp_Energy>
-2.96046

> <b_lp_Chiralities_Consistent>
1

> <s_lp_Variant>
mol_ID_69-1

> <s_epik_Chemistry_Notes>
This compound contains an electron-poor aromatic ring that is susceptible to covalent hydrolysis at low pH, typically resulting in measured values for nitrogen ring protonation that are around two units higher than predicted values.

> <s_m_subgroup_title>
ligprep_SpotXplore-out1

> <s_m_subgroupid>
ligprep_SpotXplore-out1

> <b_m_subgroup_collapsed>
0

$$$$
mol_ID_70
                    3D
 Schrodinger Suite 2020-4.
 14 14  0  0  1  0            999 V2000
   -0.7323    1.1378    0.0000 C   0  0  0  0  0  0
    0.0524    0.0467    0.0000 C   0  0  0  0  0  0
    1.5245    0.0429    0.0000 C   0  0  0  0  0  0
    2.1690    1.2177    0.0000 N   0  0  0  0  0  0
    3.5191    1.1918    0.0000 C   0  0  0  0  0  0
    4.2359   -0.0200    0.0000 C   0  0  0  0  0  0
    3.4628   -1.1967    0.0000 C   0  0  0  0  0  0
    2.1128   -1.1588    0.0000 N   0  0  0  0  0  0
   -0.3214    2.1368   -0.0000 H   0  0  0  0  0  0
   -1.8079    1.0411   -0.0000 H   0  0  0  0  0  0
   -0.4277   -0.9215    0.0000 H   0  0  0  0  0  0
    4.0294    2.1435    0.0000 H   0  0  0  0  0  0
    5.3155   -0.0455    0.0000 H   0  0  0  0  0  0
    3.9282   -2.1712   -0.0000 H   0  0  0  0  0  0
  1  2  2  0  0  0
  1  9  1  0  0  0
  1 10  1  0  0  0
  2  3  1  0  0  0
  2 11  1  0  0  0
  3  8  1  0  0  0
  3  4  2  0  0  0
  4  5  1  0  0  0
  5  6  2  0  0  0
  5 12  1  0  0  0
  6  7  1  0  0  0
  6 13  1  0  0  0
  7  8  2  0  0  0
  7 14  1  0  0  0
M  END
> <s_m_entry_id>
944

> <s_m_entry_name>
Spot_Xplore.std.70

> <s_m_Source_Path>
/Volumes/cluster/ddu/2448959/Work/2023/01_Fragment_screening_lib/1_Library_Construction/Work/SpotX/Ph4_Hypo_JC2

> <s_m_Source_File>
SpotX.maegz

> <i_m_Source_File_Index>
78

> <s_m_job_name>
ligprep_SpotXplore

> <i_lp_mmshare_version>
52144

> <s_epik_input>
W0NIMl09W0NIXWMxbltjSF1bY0hdW2NIXW4x

> <s_epik_cmdline>
J2VwaWtfcHl0aG9uJywgJy1waHQnLCAnMS4wJywgJy1waCcsICc3LjAnLCAnLXRuJywgJzgnLCAnLW1hJywgJzIwMCcsICctaW1hZScsICc8aW5maWxlLm1hZT4nLCAnLW9tYWUnLCAnPG91dGZpbGUubWFlPic=

> <r_lp_tautomer_probability>
1

> <r_epik_Ionization_Penalty>
  0.0000

> <r_epik_Ionization_Penalty_Charging>
  0.0000

> <r_epik_Ionization_Penalty_Neutral>
  0.0000

> <r_epik_State_Penalty>
  0.0000

> <r_epik_Charging_Adjusted_Penalty>
0

> <i_epik_Tot_Q>
0

> <i_epik_Tot_abs_Q>
0

> <i_f3d_flags>
0

> <s_lp_Force_Field>
OPLS_2005

> <r_lp_Energy>
-1.683654

> <b_lp_Chiralities_Consistent>
1

> <s_lp_Variant>
mol_ID_70-1

> <s_epik_Chemistry_Notes>
This compound contains an electron-poor aromatic ring that is susceptible to covalent hydrolysis at low pH, typically resulting in measured values for nitrogen ring protonation that are around two units higher than predicted values.

> <s_m_subgroup_title>
ligprep_SpotXplore-out1

> <s_m_subgroupid>
ligprep_SpotXplore-out1

> <b_m_subgroup_collapsed>
0

$$$$
mol_ID_71
                    3D
 Schrodinger Suite 2020-4.
  9  9  0  0  1  0            999 V2000
   -3.5093    5.0170    0.0477 Cl  0  0  0  0  0  0
   -2.7052    3.4990    0.0351 C   0  0  0  0  0  0
   -1.3960    3.2912    0.0285 N   0  0  0  0  0  0
   -1.2953    1.8966    0.0196 C   0  0  0  0  0  0
   -2.5530    1.3280    0.0213 C   0  0  0  0  0  0
   -3.4435    2.3886    0.0314 N   0  0  0  0  0  0
   -0.3301    1.4119    0.0127 H   0  0  0  0  0  0
   -2.8748    0.2970    0.0164 H   0  0  0  0  0  0
   -4.4520    2.3344    0.0353 H   0  0  0  0  0  0
  1  2  1  0  0  0
  2  6  1  0  0  0
  2  3  2  0  0  0
  3  4  1  0  0  0
  4  5  2  0  0  0
  4  7  1  0  0  0
  5  6  1  0  0  0
  5  8  1  0  0  0
  6  9  1  0  0  0
M  END
> <s_m_entry_id>
945

> <s_m_entry_name>
Spot_Xplore.std.71

> <s_m_Source_Path>
/Volumes/cluster/ddu/2448959/Work/2023/01_Fragment_screening_lib/1_Library_Construction/Work/SpotX/Ph4_Hypo_JC2

> <s_m_Source_File>
SpotX.maegz

> <i_m_Source_File_Index>
79

> <s_m_job_name>
ligprep_SpotXplore

> <i_lp_mmshare_version>
52144

> <s_epik_input>
Q2xjMW5bY0hdW2NIXVtuSF0x

> <s_epik_cmdline>
J2VwaWtfcHl0aG9uJywgJy1waHQnLCAnMS4wJywgJy1waCcsICc3LjAnLCAnLXRuJywgJzgnLCAnLW1hJywgJzIwMCcsICctaW1hZScsICc8aW5maWxlLm1hZT4nLCAnLW9tYWUnLCAnPG91dGZpbGUubWFlPic=

> <r_lp_tautomer_probability>
1

> <r_epik_Ionization_Penalty>
  0.0005

> <r_epik_Ionization_Penalty_Charging>
  0.0004

> <r_epik_Ionization_Penalty_Neutral>
  0.0001

> <r_epik_State_Penalty>
  0.0000

> <r_epik_Charging_Adjusted_Penalty>
0.000418306494281306

> <i_epik_Tot_Q>
0

> <i_epik_Tot_abs_Q>
0

> <i_f3d_flags>
0

> <s_lp_Force_Field>
OPLS_2005

> <r_lp_Energy>
3.286627

> <b_lp_Chiralities_Consistent>
1

> <s_lp_Variant>
mol_ID_71-1

> <s_m_subgroup_title>
ligprep_SpotXplore-out1

> <s_m_subgroupid>
ligprep_SpotXplore-out1

> <b_m_subgroup_collapsed>
0

$$$$
mol_ID_72
                    3D
 Schrodinger Suite 2020-4.
 14 14  0  0  1  0            999 V2000
   -1.2337    0.0592    0.0020 C   0  0  0  0  0  0
   -0.0130    0.0258   -0.0012 C   0  0  0  0  0  0
    1.4582   -0.0281   -0.0037 C   0  0  0  0  0  0
    1.9766   -1.3819   -0.0176 N   0  0  0  0  0  0
    2.2706   -2.1783    1.0819 C   0  0  0  0  0  0
    2.7282   -3.3788    0.5874 C   0  0  0  0  0  0
    2.7235   -3.3446   -0.8051 N   0  0  0  0  0  0
    2.2656   -2.1322   -1.0903 C   0  0  0  0  0  0
   -2.3004    0.0856    0.0062 H   0  0  0  0  0  0
    1.8272    0.5079   -0.8788 H   0  0  0  0  0  0
    1.8284    0.4883    0.8825 H   0  0  0  0  0  0
    2.1326   -1.8344    2.0964 H   0  0  0  0  0  0
    3.0562   -4.2577    1.1227 H   0  0  0  0  0  0
    2.1355   -1.7822   -2.1040 H   0  0  0  0  0  0
  1  2  3  0  0  0
  1  9  1  0  0  0
  2  3  1  0  0  0
  3  4  1  0  0  0
  3 10  1  0  0  0
  3 11  1  0  0  0
  4  8  1  0  0  0
  4  5  1  0  0  0
  5  6  2  0  0  0
  5 12  1  0  0  0
  6  7  1  0  0  0
  6 13  1  0  0  0
  7  8  2  0  0  0
  8 14  1  0  0  0
M  END
> <s_m_entry_id>
946

> <s_m_entry_name>
Spot_Xplore.std.72

> <s_m_Source_Path>
/Volumes/cluster/ddu/2448959/Work/2023/01_Fragment_screening_lib/1_Library_Construction/Work/SpotX/Ph4_Hypo_JC2

> <s_m_Source_File>
SpotX.maegz

> <i_m_Source_File_Index>
80

> <s_m_job_name>
ligprep_SpotXplore

> <i_lp_mmshare_version>
52144

> <s_epik_input>
W0NIXSNDW0NIMl1uMVtjSF1bY0hdbltjSF0x

> <s_epik_cmdline>
J2VwaWtfcHl0aG9uJywgJy1waHQnLCAnMS4wJywgJy1waCcsICc3LjAnLCAnLXRuJywgJzgnLCAnLW1hJywgJzIwMCcsICctaW1hZScsICc8aW5maWxlLm1hZT4nLCAnLW9tYWUnLCAnPG91dGZpbGUubWFlPic=

> <r_lp_tautomer_probability>
1

> <r_epik_Ionization_Penalty>
  0.2150

> <r_epik_Ionization_Penalty_Charging>
  0.2150

> <r_epik_Ionization_Penalty_Neutral>
  0.0000

> <r_epik_State_Penalty>
  0.2052

> <r_epik_Charging_Adjusted_Penalty>
0.420243068387091

> <i_epik_Tot_Q>
0

> <i_epik_Tot_abs_Q>
0

> <i_f3d_flags>
0

> <s_lp_Force_Field>
OPLS_2005

> <r_lp_Energy>
3.945185

> <b_lp_Chiralities_Consistent>
1

> <s_lp_Variant>
mol_ID_72-1

> <s_m_subgroup_title>
ligprep_SpotXplore-out1

> <s_m_subgroupid>
ligprep_SpotXplore-out1

> <b_m_subgroup_collapsed>
0

$$$$
mol_ID_72
                    3D
 Schrodinger Suite 2020-4.
 15 15  0  0  1  0            999 V2000
   -1.2278    0.0521   -0.0089 C   0  0  0  0  0  0
   -0.0075    0.0111   -0.0117 C   0  0  0  0  0  0
    1.4637   -0.0508   -0.0200 C   0  0  0  0  0  0
    1.9851   -1.4192    0.0198 N   0  0  0  0  0  0
    2.2672   -2.1695    1.1330 C   0  0  0  0  0  0
    2.7234   -3.3815    0.6822 C   0  0  0  0  0  0
    2.6996   -3.3206   -0.6855 N   0  3  0  0  0  0
    2.2497   -2.1271   -1.0865 C   0  0  0  0  0  0
   -2.2942    0.0925   -0.0067 H   0  0  0  0  0  0
    1.8374    0.4454   -0.9167 H   0  0  0  0  0  0
    1.8451    0.4899    0.8468 H   0  0  0  0  0  0
    2.1248   -1.7951    2.1366 H   0  0  0  0  0  0
    3.0534   -4.2594    1.2183 H   0  0  0  0  0  0
    2.1234   -1.8004   -2.1036 H   0  0  0  0  0  0
    2.9802   -4.0698   -1.3061 H   0  0  0  0  0  0
  1  2  3  0  0  0
  1  9  1  0  0  0
  2  3  1  0  0  0
  3  4  1  0  0  0
  3 10  1  0  0  0
  3 11  1  0  0  0
  4  8  1  0  0  0
  4  5  1  0  0  0
  5  6  2  0  0  0
  5 12  1  0  0  0
  6  7  1  0  0  0
  6 13  1  0  0  0
  7  8  2  0  0  0
  7 15  1  0  0  0
  8 14  1  0  0  0
M  CHG  1   7   1
M  END
> <s_m_entry_id>
947

> <s_m_entry_name>
Spot_Xplore.std.72

> <s_m_Source_Path>
/Volumes/cluster/ddu/2448959/Work/2023/01_Fragment_screening_lib/1_Library_Construction/Work/SpotX/Ph4_Hypo_JC2

> <s_m_Source_File>
SpotX.maegz

> <i_m_Source_File_Index>
81

> <s_m_job_name>
ligprep_SpotXplore

> <i_lp_mmshare_version>
52144

> <s_epik_input>
W0NIXSNDW0NIMl1uMVtjSF1bY0hdbltjSF0x

> <s_epik_cmdline>
J2VwaWtfcHl0aG9uJywgJy1waHQnLCAnMS4wJywgJy1waCcsICc3LjAnLCAnLXRuJywgJzgnLCAnLW1hJywgJzIwMCcsICctaW1hZScsICc8aW5maWxlLm1hZT4nLCAnLW9tYWUnLCAnPG91dGZpbGUubWFlPic=

> <r_lp_tautomer_probability>
1

> <r_epik_Ionization_Penalty>
  0.7048

> <r_epik_Ionization_Penalty_Charging>
  0.0000

> <r_epik_Ionization_Penalty_Neutral>
  0.7048

> <r_epik_State_Penalty>
  0.7278

> <r_epik_Charging_Adjusted_Penalty>
0.727836591906514

> <i_epik_Tot_Q>
1

> <i_epik_Tot_abs_Q>
1

> <i_f3d_flags>
0

> <s_lp_Force_Field>
OPLS_2005

> <r_lp_Energy>
5.331192

> <b_lp_Chiralities_Consistent>
1

> <s_lp_Variant>
mol_ID_72-2

> <s_m_subgroup_title>
ligprep_SpotXplore-out1

> <s_m_subgroupid>
ligprep_SpotXplore-out1

> <b_m_subgroup_collapsed>
0

$$$$
mol_ID_73
                    3D
 Schrodinger Suite 2020-4.
 13 13  0  0  1  0            999 V2000
   -0.6836    1.1682    0.0000 C   0  0  0  0  0  0
    0.0834    0.0666   -0.0000 C   0  0  0  0  0  0
    1.5096   -0.0202   -0.0000 C   0  0  0  0  0  0
    2.4028    1.0126   -0.0000 C   0  0  0  0  0  0
    3.6623    0.3429   -0.0000 C   0  0  0  0  0  0
    3.5498   -0.9802   -0.0000 N   0  0  0  0  0  0
    2.2194   -1.1959   -0.0000 N   0  0  0  0  0  0
   -0.2507    2.1578   -0.0000 H   0  0  0  0  0  0
   -1.7610    1.0927    0.0000 H   0  0  0  0  0  0
   -0.4292   -0.8844    0.0000 H   0  0  0  0  0  0
    2.1978    2.0730   -0.0000 H   0  0  0  0  0  0
    4.6511    0.7773   -0.0000 H   0  0  0  0  0  0
    1.8262   -2.1263    0.0000 H   0  0  0  0  0  0
  1  2  2  0  0  0
  1  8  1  0  0  0
  1  9  1  0  0  0
  2  3  1  0  0  0
  2 10  1  0  0  0
  3  7  1  0  0  0
  3  4  2  0  0  0
  4  5  1  0  0  0
  4 11  1  0  0  0
  5  6  2  0  0  0
  5 12  1  0  0  0
  6  7  1  0  0  0
  7 13  1  0  0  0
M  END
> <s_m_entry_id>
948

> <s_m_entry_name>
Spot_Xplore.std.73

> <s_m_Source_Path>
/Volumes/cluster/ddu/2448959/Work/2023/01_Fragment_screening_lib/1_Library_Construction/Work/SpotX/Ph4_Hypo_JC2

> <s_m_Source_File>
SpotX.maegz

> <i_m_Source_File_Index>
82

> <s_m_job_name>
ligprep_SpotXplore

> <i_lp_mmshare_version>
52144

> <s_epik_input>
W0NIMl09W0NIXWMxW2NIXVtjSF1uW25IXTE=

> <s_epik_cmdline>
J2VwaWtfcHl0aG9uJywgJy1waHQnLCAnMS4wJywgJy1waCcsICc3LjAnLCAnLXRuJywgJzgnLCAnLW1hJywgJzIwMCcsICctaW1hZScsICc8aW5maWxlLm1hZT4nLCAnLW9tYWUnLCAnPG91dGZpbGUubWFlPic=

> <r_lp_tautomer_probability>
1

> <r_epik_Ionization_Penalty>
  0.0001

> <r_epik_Ionization_Penalty_Charging>
  0.0000

> <r_epik_Ionization_Penalty_Neutral>
  0.0001

> <r_epik_State_Penalty>
  0.0000

> <r_epik_Charging_Adjusted_Penalty>
0

> <i_epik_Tot_Q>
0

> <i_epik_Tot_abs_Q>
0

> <i_f3d_flags>
0

> <s_lp_Force_Field>
OPLS_2005

> <r_lp_Energy>
2.421237

> <b_lp_Chiralities_Consistent>
1

> <s_lp_Variant>
mol_ID_73-1

> <s_m_subgroup_title>
ligprep_SpotXplore-out1

> <s_m_subgroupid>
ligprep_SpotXplore-out1

> <b_m_subgroup_collapsed>
0

$$$$
mol_ID_74
                    3D
 Schrodinger Suite 2020-4.
 14 14  0  0  1  0            999 V2000
   -0.0294   -0.0217   -0.0000 C   0  0  0  0  0  0
    1.4707    0.0231   -0.0000 C   0  0  0  0  0  0
    2.1709   -1.1015    0.0000 N   0  0  0  0  0  0
    3.5254   -0.7267   -0.0000 O   0  0  0  0  0  0
    3.6084    0.6313   -0.0000 C   0  0  0  0  0  0
    4.9714    1.2340   -0.0000 C   0  0  0  0  0  0
    2.3447    1.1397   -0.0000 C   0  0  0  0  0  0
    1.8546    2.9795   -0.0000 Br  0  0  0  0  0  0
   -0.4574    0.9807    0.0000 H   0  0  0  0  0  0
   -0.4056   -0.5418    0.8810 H   0  0  0  0  0  0
   -0.4056   -0.5418   -0.8810 H   0  0  0  0  0  0
    4.9173    2.3227   -0.0000 H   0  0  0  0  0  0
    5.5303    0.9238   -0.8829 H   0  0  0  0  0  0
    5.5303    0.9238    0.8828 H   0  0  0  0  0  0
  1  2  1  0  0  0
  1  9  1  0  0  0
  1 10  1  0  0  0
  1 11  1  0  0  0
  2  7  1  0  0  0
  2  3  2  0  0  0
  3  4  1  0  0  0
  4  5  1  0  0  0
  5  6  1  0  0  0
  5  7  2  0  0  0
  6 12  1  0  0  0
  6 13  1  0  0  0
  6 14  1  0  0  0
  7  8  1  0  0  0
M  END
> <s_m_entry_id>
949

> <s_m_entry_name>
Spot_Xplore.std.74

> <s_m_Source_Path>
/Volumes/cluster/ddu/2448959/Work/2023/01_Fragment_screening_lib/1_Library_Construction/Work/SpotX/Ph4_Hypo_JC2

> <s_m_Source_File>
SpotX.maegz

> <i_m_Source_File_Index>
83

> <s_m_job_name>
ligprep_SpotXplore

> <i_lp_mmshare_version>
52144

> <s_epik_input>
W0NIM11jMW5vYyhbQ0gzXSljMUJy

> <s_epik_cmdline>
J2VwaWtfcHl0aG9uJywgJy1waHQnLCAnMS4wJywgJy1waCcsICc3LjAnLCAnLXRuJywgJzgnLCAnLW1hJywgJzIwMCcsICctaW1hZScsICc8aW5maWxlLm1hZT4nLCAnLW9tYWUnLCAnPG91dGZpbGUubWFlPic=

> <r_lp_tautomer_probability>
1

> <r_epik_Ionization_Penalty>
  0.0000

> <r_epik_Ionization_Penalty_Charging>
  0.0000

> <r_epik_Ionization_Penalty_Neutral>
  0.0000

> <r_epik_State_Penalty>
  0.0000

> <r_epik_Charging_Adjusted_Penalty>
0

> <i_epik_Tot_Q>
0

> <i_epik_Tot_abs_Q>
0

> <i_f3d_flags>
0

> <s_lp_Force_Field>
OPLS_2005

> <r_lp_Energy>
0.947247

> <b_lp_Chiralities_Consistent>
1

> <s_lp_Variant>
mol_ID_74-1

> <s_m_subgroup_title>
ligprep_SpotXplore-out1

> <s_m_subgroupid>
ligprep_SpotXplore-out1

> <b_m_subgroup_collapsed>
0

$$$$
mol_ID_75
                    3D
 Schrodinger Suite 2020-4.
  9  9  0  0  1  0            999 V2000
   -1.0638    0.0376    0.0000 N   0  0  0  0  0  0
    0.0932    0.0202   -0.0000 C   0  0  0  0  0  0
    1.4978   -0.0014   -0.0000 C   0  0  0  0  0  0
    2.3027    1.1083   -0.0000 C   0  0  0  0  0  0
    3.6610    0.7702   -0.0000 N   0  0  0  0  0  0
    3.8465   -0.5551   -0.0000 C   0  0  0  0  0  0
    2.3647   -1.5066   -0.0000 S   0  0  0  0  0  0
    2.0082    2.1477   -0.0000 H   0  0  0  0  0  0
    4.8444   -0.9685   -0.0000 H   0  0  0  0  0  0
  1  2  3  0  0  0
  2  3  1  0  0  0
  3  7  1  0  0  0
  3  4  2  0  0  0
  4  5  1  0  0  0
  4  8  1  0  0  0
  5  6  2  0  0  0
  6  7  1  0  0  0
  6  9  1  0  0  0
M  END
> <s_m_entry_id>
950

> <s_m_entry_name>
Spot_Xplore.std.75

> <s_m_Source_Path>
/Volumes/cluster/ddu/2448959/Work/2023/01_Fragment_screening_lib/1_Library_Construction/Work/SpotX/Ph4_Hypo_JC2

> <s_m_Source_File>
SpotX.maegz

> <i_m_Source_File_Index>
84

> <s_m_job_name>
ligprep_SpotXplore

> <i_lp_mmshare_version>
52144

> <s_epik_input>
TiNDYzFbY0hdbltjSF1zMQ==

> <s_epik_cmdline>
J2VwaWtfcHl0aG9uJywgJy1waHQnLCAnMS4wJywgJy1waCcsICc3LjAnLCAnLXRuJywgJzgnLCAnLW1hJywgJzIwMCcsICctaW1hZScsICc8aW5maWxlLm1hZT4nLCAnLW9tYWUnLCAnPG91dGZpbGUubWFlPic=

> <r_lp_tautomer_probability>
1

> <r_epik_Ionization_Penalty>
  0.0000

> <r_epik_Ionization_Penalty_Charging>
  0.0000

> <r_epik_Ionization_Penalty_Neutral>
  0.0000

> <r_epik_State_Penalty>
  0.0000

> <r_epik_Charging_Adjusted_Penalty>
0

> <i_epik_Tot_Q>
0

> <i_epik_Tot_abs_Q>
0

> <i_f3d_flags>
0

> <s_lp_Force_Field>
OPLS_2005

> <r_lp_Energy>
1.178227

> <b_lp_Chiralities_Consistent>
1

> <s_lp_Variant>
mol_ID_75-1

> <s_m_subgroup_title>
ligprep_SpotXplore-out1

> <s_m_subgroupid>
ligprep_SpotXplore-out1

> <b_m_subgroup_collapsed>
0

$$$$
mol_ID_76
                    3D
 Schrodinger Suite 2020-4.
 12 12  0  0  1  0            999 V2000
   -1.1175    0.0074    0.0000 N   0  0  0  0  0  0
    0.0398    0.0009    0.0000 C   0  0  0  0  0  0
    1.4927   -0.0066    0.0000 C   0  0  0  0  0  0
    2.1947    1.2184    0.0000 C   0  0  0  0  0  0
    3.6028    1.1892    0.0000 C   0  0  0  0  0  0
    4.2552   -0.0583   -0.0000 C   0  0  0  0  0  0
    3.4662   -1.2254   -0.0000 C   0  0  0  0  0  0
    2.1157   -1.2064   -0.0000 N   0  0  0  0  0  0
    1.6694    2.1628    0.0000 H   0  0  0  0  0  0
    4.1715    2.1072    0.0000 H   0  0  0  0  0  0
    5.3335   -0.1195   -0.0000 H   0  0  0  0  0  0
    3.9316   -2.1998   -0.0000 H   0  0  0  0  0  0
  1  2  3  0  0  0
  2  3  1  0  0  0
  3  8  1  0  0  0
  3  4  2  0  0  0
  4  5  1  0  0  0
  4  9  1  0  0  0
  5  6  2  0  0  0
  5 10  1  0  0  0
  6  7  1  0  0  0
  6 11  1  0  0  0
  7  8  2  0  0  0
  7 12  1  0  0  0
M  END
> <s_m_entry_id>
951

> <s_m_entry_name>
Spot_Xplore.std.76

> <s_m_Source_Path>
/Volumes/cluster/ddu/2448959/Work/2023/01_Fragment_screening_lib/1_Library_Construction/Work/SpotX/Ph4_Hypo_JC2

> <s_m_Source_File>
SpotX.maegz

> <i_m_Source_File_Index>
85

> <s_m_job_name>
ligprep_SpotXplore

> <i_lp_mmshare_version>
52144

> <s_epik_input>
TiNDYzFbY0hdW2NIXVtjSF1bY0hdbjE=

> <s_epik_cmdline>
J2VwaWtfcHl0aG9uJywgJy1waHQnLCAnMS4wJywgJy1waCcsICc3LjAnLCAnLXRuJywgJzgnLCAnLW1hJywgJzIwMCcsICctaW1hZScsICc8aW5maWxlLm1hZT4nLCAnLW9tYWUnLCAnPG91dGZpbGUubWFlPic=

> <r_lp_tautomer_probability>
1

> <r_epik_Ionization_Penalty>
  0.0000

> <r_epik_Ionization_Penalty_Charging>
  0.0000

> <r_epik_Ionization_Penalty_Neutral>
  0.0000

> <r_epik_State_Penalty>
  0.0000

> <r_epik_Charging_Adjusted_Penalty>
0

> <i_epik_Tot_Q>
0

> <i_epik_Tot_abs_Q>
0

> <i_f3d_flags>
0

> <s_lp_Force_Field>
OPLS_2005

> <r_lp_Energy>
3.193522

> <b_lp_Chiralities_Consistent>
1

> <s_lp_Variant>
mol_ID_76-1

> <s_m_subgroup_title>
ligprep_SpotXplore-out1

> <s_m_subgroupid>
ligprep_SpotXplore-out1

> <b_m_subgroup_collapsed>
0

$$$$
mol_ID_77
                    3D
 Schrodinger Suite 2020-4.
 10 10  0  0  1  0            999 V2000
   -5.1511   -8.1516   -2.7865 Cl  0  0  0  0  0  0
   -3.5931   -7.4167   -2.7001 C   0  0  0  0  0  0
   -3.4644   -6.1248   -2.1491 C   0  0  0  0  0  0
   -2.1632   -5.5847   -2.1094 C   0  0  0  0  0  0
   -1.0957   -6.2683   -2.5747 N   0  0  0  0  0  0
   -1.3330   -7.4833   -3.0751 C   0  0  0  0  0  0
   -2.5182   -8.0925   -3.1631 N   0  0  0  0  0  0
   -4.3173   -5.5769   -1.7766 H   0  0  0  0  0  0
   -1.9785   -4.6013   -1.7032 H   0  0  0  0  0  0
   -0.4786   -8.0290   -3.4469 H   0  0  0  0  0  0
  1  2  1  0  0  0
  2  7  1  0  0  0
  2  3  2  0  0  0
  3  4  1  0  0  0
  3  8  1  0  0  0
  4  5  2  0  0  0
  4  9  1  0  0  0
  5  6  1  0  0  0
  6  7  2  0  0  0
  6 10  1  0  0  0
M  END
> <s_m_entry_id>
952

> <s_m_entry_name>
Spot_Xplore.std.77

> <s_m_Source_Path>
/Volumes/cluster/ddu/2448959/Work/2023/01_Fragment_screening_lib/1_Library_Construction/Work/SpotX/Ph4_Hypo_JC2

> <s_m_Source_File>
SpotX.maegz

> <i_m_Source_File_Index>
86

> <s_m_job_name>
ligprep_SpotXplore

> <i_lp_mmshare_version>
52144

> <s_epik_input>
Q2xjMVtjSF1bY0hdbltjSF1uMQ==

> <s_epik_cmdline>
J2VwaWtfcHl0aG9uJywgJy1waHQnLCAnMS4wJywgJy1waCcsICc3LjAnLCAnLXRuJywgJzgnLCAnLW1hJywgJzIwMCcsICctaW1hZScsICc8aW5maWxlLm1hZT4nLCAnLW9tYWUnLCAnPG91dGZpbGUubWFlPic=

> <r_lp_tautomer_probability>
1

> <r_epik_Ionization_Penalty>
  0.0000

> <r_epik_Ionization_Penalty_Charging>
  0.0000

> <r_epik_Ionization_Penalty_Neutral>
  0.0000

> <r_epik_State_Penalty>
  0.0000

> <r_epik_Charging_Adjusted_Penalty>
0

> <i_epik_Tot_Q>
0

> <i_epik_Tot_abs_Q>
0

> <i_f3d_flags>
0

> <s_lp_Force_Field>
OPLS_2005

> <r_lp_Energy>
-3.876397

> <b_lp_Chiralities_Consistent>
1

> <s_lp_Variant>
mol_ID_77-1

> <s_epik_Chemistry_Notes>
This compound contains an electron-poor aromatic ring that is susceptible to covalent hydrolysis at low pH, typically resulting in measured values for nitrogen ring protonation that are around two units higher than predicted values.

> <s_m_subgroup_title>
ligprep_SpotXplore-out1

> <s_m_subgroupid>
ligprep_SpotXplore-out1

> <b_m_subgroup_collapsed>
0

$$$$
mol_ID_78
                    3D
 Schrodinger Suite 2020-4.
 14 14  0  0  1  0            999 V2000
   -0.7600    1.1314    0.0000 C   0  0  0  0  0  0
    0.0307    0.0453    0.0000 C   0  0  0  0  0  0
    1.5020    0.0445    0.0000 C   0  0  0  0  0  0
    2.2917    1.2184    0.0000 C   0  0  0  0  0  0
    3.6417    1.1743    0.0000 N   0  0  0  0  0  0
    4.2047   -0.0357    0.0000 C   0  0  0  0  0  0
    3.5706   -1.2100    0.0000 N   0  0  0  0  0  0
    2.2206   -1.1714   -0.0000 C   0  0  0  0  0  0
   -0.3637    2.1356   -0.0000 H   0  0  0  0  0  0
   -1.8349    1.0243   -0.0000 H   0  0  0  0  0  0
   -0.4441   -0.9254    0.0000 H   0  0  0  0  0  0
    1.8509    2.2036    0.0000 H   0  0  0  0  0  0
    5.2842   -0.0673    0.0000 H   0  0  0  0  0  0
    1.7100   -2.1233   -0.0000 H   0  0  0  0  0  0
  1  2  2  0  0  0
  1  9  1  0  0  0
  1 10  1  0  0  0
  2  3  1  0  0  0
  2 11  1  0  0  0
  3  8  1  0  0  0
  3  4  2  0  0  0
  4  5  1  0  0  0
  4 12  1  0  0  0
  5  6  2  0  0  0
  6  7  1  0  0  0
  6 13  1  0  0  0
  7  8  2  0  0  0
  8 14  1  0  0  0
M  END
> <s_m_entry_id>
953

> <s_m_entry_name>
Spot_Xplore.std.78

> <s_m_Source_Path>
/Volumes/cluster/ddu/2448959/Work/2023/01_Fragment_screening_lib/1_Library_Construction/Work/SpotX/Ph4_Hypo_JC2

> <s_m_Source_File>
SpotX.maegz

> <i_m_Source_File_Index>
87

> <s_m_job_name>
ligprep_SpotXplore

> <i_lp_mmshare_version>
52144

> <s_epik_input>
W0NIMl09W0NIXWMxW2NIXW5bY0hdbltjSF0x

> <s_epik_cmdline>
J2VwaWtfcHl0aG9uJywgJy1waHQnLCAnMS4wJywgJy1waCcsICc3LjAnLCAnLXRuJywgJzgnLCAnLW1hJywgJzIwMCcsICctaW1hZScsICc8aW5maWxlLm1hZT4nLCAnLW9tYWUnLCAnPG91dGZpbGUubWFlPic=

> <r_lp_tautomer_probability>
1

> <r_epik_Ionization_Penalty>
  0.0000

> <r_epik_Ionization_Penalty_Charging>
  0.0000

> <r_epik_Ionization_Penalty_Neutral>
  0.0000

> <r_epik_State_Penalty>
  0.0000

> <r_epik_Charging_Adjusted_Penalty>
0

> <i_epik_Tot_Q>
0

> <i_epik_Tot_abs_Q>
0

> <i_f3d_flags>
0

> <s_lp_Force_Field>
OPLS_2005

> <r_lp_Energy>
1.082997

> <b_lp_Chiralities_Consistent>
1

> <s_lp_Variant>
mol_ID_78-1

> <s_epik_Chemistry_Notes>
This compound contains an electron-poor aromatic ring that is susceptible to covalent hydrolysis at low pH, typically resulting in measured values for nitrogen ring protonation that are around two units higher than predicted values.

> <s_m_subgroup_title>
ligprep_SpotXplore-out1

> <s_m_subgroupid>
ligprep_SpotXplore-out1

> <b_m_subgroup_collapsed>
0

$$$$
mol_ID_79
                    3D
 Schrodinger Suite 2020-4.
 16 16  0  0  1  0            999 V2000
    0.0041   -0.0372   -0.0000 C   0  0  0  0  0  0
    1.4680    0.0553    0.0000 N   0  0  0  0  0  0
    2.2496    1.1737    0.0000 C   0  0  0  0  0  0
    3.5486    0.6768    0.0000 C   0  0  0  0  0  0
    5.2610    1.8751    0.0000 I   0  0  0  0  0  0
    3.5720   -0.7137    0.0000 C   0  0  0  0  0  0
    2.2543   -1.0665   -0.0000 N   0  3  0  0  0  0
    1.6682   -2.4111   -0.0000 C   0  0  0  0  0  0
   -0.4198    0.9674   -0.0000 H   0  0  0  0  0  0
   -0.3298   -0.5645    0.8941 H   0  0  0  0  0  0
   -0.3298   -0.5645   -0.8941 H   0  0  0  0  0  0
    1.8483    2.1768    0.0000 H   0  0  0  0  0  0
    4.3779   -1.4331   -0.0000 H   0  0  0  0  0  0
    2.4682   -3.1521   -0.0000 H   0  0  0  0  0  0
    1.0595   -2.5454   -0.8945 H   0  0  0  0  0  0
    1.0595   -2.5454    0.8945 H   0  0  0  0  0  0
  1  2  1  0  0  0
  1  9  1  0  0  0
  1 10  1  0  0  0
  1 11  1  0  0  0
  2  7  1  0  0  0
  2  3  1  0  0  0
  3  4  2  0  0  0
  3 12  1  0  0  0
  4  5  1  0  0  0
  4  6  1  0  0  0
  6  7  2  0  0  0
  6 13  1  0  0  0
  7  8  1  0  0  0
  8 14  1  0  0  0
  8 15  1  0  0  0
  8 16  1  0  0  0
M  CHG  1   7   1
M  END
> <s_m_entry_id>
954

> <s_m_entry_name>
Spot_Xplore.std.79

> <s_m_Source_Path>
/Volumes/cluster/ddu/2448959/Work/2023/01_Fragment_screening_lib/1_Library_Construction/Work/SpotX/Ph4_Hypo_JC2

> <s_m_Source_File>
SpotX.maegz

> <i_m_Source_File_Index>
88

> <s_m_job_name>
ligprep_SpotXplore

> <i_lp_mmshare_version>
52144

> <s_epik_input>
W0NIM11uMVtjSF1jKEkpW2NIXVtuK10xW0NIM10=

> <s_epik_cmdline>
J2VwaWtfcHl0aG9uJywgJy1waHQnLCAnMS4wJywgJy1waCcsICc3LjAnLCAnLXRuJywgJzgnLCAnLW1hJywgJzIwMCcsICctaW1hZScsICc8aW5maWxlLm1hZT4nLCAnLW9tYWUnLCAnPG91dGZpbGUubWFlPic=

> <r_lp_tautomer_probability>
1

> <r_epik_Ionization_Penalty>
  0.0000

> <r_epik_Ionization_Penalty_Charging>
  0.0000

> <r_epik_Ionization_Penalty_Neutral>
  0.0000

> <r_epik_State_Penalty>
  0.0000

> <r_epik_Charging_Adjusted_Penalty>
0

> <i_epik_Tot_Q>
1

> <i_epik_Tot_abs_Q>
1

> <i_f3d_flags>
0

> <s_lp_Force_Field>
OPLS_2005

> <r_lp_Energy>
11.707997

> <b_lp_Chiralities_Consistent>
1

> <s_lp_Variant>
mol_ID_79-1

> <s_m_subgroup_title>
ligprep_SpotXplore-out1

> <s_m_subgroupid>
ligprep_SpotXplore-out1

> <b_m_subgroup_collapsed>
0

$$$$
mol_ID_80
                    3D
 Schrodinger Suite 2020-4.
 16 16  0  0  1  0            999 V2000
    0.0292   -0.0389    0.0000 C   0  0  0  0  0  0
    1.4906    0.0248   -0.0000 N   0  0  0  0  0  0
    2.2817    1.1454   -0.0000 C   0  0  0  0  0  0
    3.5871    0.7125   -0.0000 C   0  0  0  0  0  0
    3.5565   -0.6594   -0.0000 N   0  3  0  0  0  0
    4.7142   -1.5569   -0.0000 C   0  0  0  0  0  0
    2.2775   -1.0557   -0.0000 C   0  0  0  0  0  0
    1.6528   -2.8590    0.0000 Br  0  0  0  0  0  0
   -0.3809    0.9715    0.0000 H   0  0  0  0  0  0
   -0.3085   -0.5674    0.8921 H   0  0  0  0  0  0
   -0.3085   -0.5674   -0.8921 H   0  0  0  0  0  0
    1.8705    2.1445   -0.0000 H   0  0  0  0  0  0
    4.5140    1.2679   -0.0000 H   0  0  0  0  0  0
    4.4034   -2.6006    0.0000 H   0  0  0  0  0  0
    5.3130   -1.3609    0.8899 H   0  0  0  0  0  0
    5.3130   -1.3609   -0.8899 H   0  0  0  0  0  0
  1  2  1  0  0  0
  1  9  1  0  0  0
  1 10  1  0  0  0
  1 11  1  0  0  0
  2  7  1  0  0  0
  2  3  1  0  0  0
  3  4  2  0  0  0
  3 12  1  0  0  0
  4  5  1  0  0  0
  4 13  1  0  0  0
  5  6  1  0  0  0
  5  7  2  0  0  0
  6 14  1  0  0  0
  6 15  1  0  0  0
  6 16  1  0  0  0
  7  8  1  0  0  0
M  CHG  1   5   1
M  END
> <s_m_entry_id>
955

> <s_m_entry_name>
Spot_Xplore.std.80

> <s_m_Source_Path>
/Volumes/cluster/ddu/2448959/Work/2023/01_Fragment_screening_lib/1_Library_Construction/Work/SpotX/Ph4_Hypo_JC2

> <s_m_Source_File>
SpotX.maegz

> <i_m_Source_File_Index>
89

> <s_m_job_name>
ligprep_SpotXplore

> <i_lp_mmshare_version>
52144

> <s_epik_input>
W0NIM11uMVtjSF1bY0hdW24rXShbQ0gzXSljMUJy

> <s_epik_cmdline>
J2VwaWtfcHl0aG9uJywgJy1waHQnLCAnMS4wJywgJy1waCcsICc3LjAnLCAnLXRuJywgJzgnLCAnLW1hJywgJzIwMCcsICctaW1hZScsICc8aW5maWxlLm1hZT4nLCAnLW9tYWUnLCAnPG91dGZpbGUubWFlPic=

> <r_lp_tautomer_probability>
1

> <r_epik_Ionization_Penalty>
  0.0000

> <r_epik_Ionization_Penalty_Charging>
  0.0000

> <r_epik_Ionization_Penalty_Neutral>
  0.0000

> <r_epik_State_Penalty>
  0.0000

> <r_epik_Charging_Adjusted_Penalty>
0

> <i_epik_Tot_Q>
1

> <i_epik_Tot_abs_Q>
1

> <i_f3d_flags>
0

> <s_lp_Force_Field>
OPLS_2005

> <r_lp_Energy>
6.599296

> <b_lp_Chiralities_Consistent>
1

> <s_lp_Variant>
mol_ID_80-1

> <s_m_subgroup_title>
ligprep_SpotXplore-out1

> <s_m_subgroupid>
ligprep_SpotXplore-out1

> <b_m_subgroup_collapsed>
0

$$$$
mol_ID_81
                    3D
 Schrodinger Suite 2020-4.
 16 16  0  0  1  0            999 V2000
    0.0473   -0.0350   -0.0000 C   0  0  0  0  0  0
    1.5071    0.0300    0.0000 N   0  0  0  0  0  0
    2.2904    1.1573   -0.0000 C   0  0  0  0  0  0
    3.5770    0.6963    0.0000 C   0  0  0  0  0  0
    5.1559    1.7592    0.0000 Br  0  0  0  0  0  0
    3.5522   -0.6699    0.0000 N   0  3  0  0  0  0
    4.6874   -1.5921    0.0000 C   0  0  0  0  0  0
    2.2739   -1.0736    0.0000 C   0  0  0  0  0  0
   -0.3639    0.9750   -0.0000 H   0  0  0  0  0  0
   -0.2891   -0.5646    0.8919 H   0  0  0  0  0  0
   -0.2891   -0.5646   -0.8919 H   0  0  0  0  0  0
    1.8874    2.1597   -0.0000 H   0  0  0  0  0  0
    4.3332   -2.6236    0.0000 H   0  0  0  0  0  0
    5.2902   -1.4147    0.8911 H   0  0  0  0  0  0
    5.2902   -1.4147   -0.8911 H   0  0  0  0  0  0
    1.9262   -2.0916    0.0000 H   0  0  0  0  0  0
  1  2  1  0  0  0
  1  9  1  0  0  0
  1 10  1  0  0  0
  1 11  1  0  0  0
  2  8  1  0  0  0
  2  3  1  0  0  0
  3  4  2  0  0  0
  3 12  1  0  0  0
  4  5  1  0  0  0
  4  6  1  0  0  0
  6  7  1  0  0  0
  6  8  2  0  0  0
  7 13  1  0  0  0
  7 14  1  0  0  0
  7 15  1  0  0  0
  8 16  1  0  0  0
M  CHG  1   6   1
M  END
> <s_m_entry_id>
956

> <s_m_entry_name>
Spot_Xplore.std.81

> <s_m_Source_Path>
/Volumes/cluster/ddu/2448959/Work/2023/01_Fragment_screening_lib/1_Library_Construction/Work/SpotX/Ph4_Hypo_JC2

> <s_m_Source_File>
SpotX.maegz

> <i_m_Source_File_Index>
90

> <s_m_job_name>
ligprep_SpotXplore

> <i_lp_mmshare_version>
52144

> <s_epik_input>
W0NIM11uMVtjSF1jKEJyKVtuK10oW0NIM10pW2NIXTE=

> <s_epik_cmdline>
J2VwaWtfcHl0aG9uJywgJy1waHQnLCAnMS4wJywgJy1waCcsICc3LjAnLCAnLXRuJywgJzgnLCAnLW1hJywgJzIwMCcsICctaW1hZScsICc8aW5maWxlLm1hZT4nLCAnLW9tYWUnLCAnPG91dGZpbGUubWFlPic=

> <r_lp_tautomer_probability>
1

> <r_epik_Ionization_Penalty>
  0.0000

> <r_epik_Ionization_Penalty_Charging>
  0.0000

> <r_epik_Ionization_Penalty_Neutral>
  0.0000

> <r_epik_State_Penalty>
  0.0000

> <r_epik_Charging_Adjusted_Penalty>
0

> <i_epik_Tot_Q>
1

> <i_epik_Tot_abs_Q>
1

> <i_f3d_flags>
0

> <s_lp_Force_Field>
OPLS_2005

> <r_lp_Energy>
4.629919

> <b_lp_Chiralities_Consistent>
1

> <s_lp_Variant>
mol_ID_81-1

> <s_m_subgroup_title>
ligprep_SpotXplore-out1

> <s_m_subgroupid>
ligprep_SpotXplore-out1

> <b_m_subgroup_collapsed>
0

$$$$
mol_ID_82
                    3D
 Schrodinger Suite 2020-4.
 14 14  0  0  1  0            999 V2000
   -0.0279   -0.0204    0.0000 C   0  0  0  0  0  0
    1.4722    0.0272   -0.0000 C   0  0  0  0  0  0
    2.1704   -1.0981    0.0000 N   0  0  0  0  0  0
    3.5241   -0.7243   -0.0000 O   0  0  0  0  0  0
    3.6063    0.6332   -0.0000 C   0  0  0  0  0  0
    4.9707    1.2331   -0.0000 C   0  0  0  0  0  0
    2.3439    1.1470   -0.0000 C   0  0  0  0  0  0
    1.8086    3.1697   -0.0000 I   0  0  0  0  0  0
   -0.4585    0.9808    0.0000 H   0  0  0  0  0  0
   -0.4033   -0.5409    0.8812 H   0  0  0  0  0  0
   -0.4033   -0.5409   -0.8812 H   0  0  0  0  0  0
    4.9195    2.3218   -0.0000 H   0  0  0  0  0  0
    5.5289    0.9220   -0.8830 H   0  0  0  0  0  0
    5.5289    0.9220    0.8830 H   0  0  0  0  0  0
  1  2  1  0  0  0
  1  9  1  0  0  0
  1 10  1  0  0  0
  1 11  1  0  0  0
  2  7  1  0  0  0
  2  3  2  0  0  0
  3  4  1  0  0  0
  4  5  1  0  0  0
  5  6  1  0  0  0
  5  7  2  0  0  0
  6 12  1  0  0  0
  6 13  1  0  0  0
  6 14  1  0  0  0
  7  8  1  0  0  0
M  END
> <s_m_entry_id>
957

> <s_m_entry_name>
Spot_Xplore.std.82

> <s_m_Source_Path>
/Volumes/cluster/ddu/2448959/Work/2023/01_Fragment_screening_lib/1_Library_Construction/Work/SpotX/Ph4_Hypo_JC2

> <s_m_Source_File>
SpotX.maegz

> <i_m_Source_File_Index>
91

> <s_m_job_name>
ligprep_SpotXplore

> <i_lp_mmshare_version>
52144

> <s_epik_input>
W0NIM11jMW5vYyhbQ0gzXSljMUk=

> <s_epik_cmdline>
J2VwaWtfcHl0aG9uJywgJy1waHQnLCAnMS4wJywgJy1waCcsICc3LjAnLCAnLXRuJywgJzgnLCAnLW1hJywgJzIwMCcsICctaW1hZScsICc8aW5maWxlLm1hZT4nLCAnLW9tYWUnLCAnPG91dGZpbGUubWFlPic=

> <r_lp_tautomer_probability>
1

> <r_epik_Ionization_Penalty>
  0.0000

> <r_epik_Ionization_Penalty_Charging>
  0.0000

> <r_epik_Ionization_Penalty_Neutral>
  0.0000

> <r_epik_State_Penalty>
  0.0000

> <r_epik_Charging_Adjusted_Penalty>
0

> <i_epik_Tot_Q>
0

> <i_epik_Tot_abs_Q>
0

> <i_f3d_flags>
0

> <s_lp_Force_Field>
OPLS_2005

> <r_lp_Energy>
0.377901

> <b_lp_Chiralities_Consistent>
1

> <s_lp_Variant>
mol_ID_82-1

> <s_m_subgroup_title>
ligprep_SpotXplore-out1

> <s_m_subgroupid>
ligprep_SpotXplore-out1

> <b_m_subgroup_collapsed>
0

$$$$
mol_ID_83
                    3D
 Schrodinger Suite 2020-4.
 12 12  0  0  1  0            999 V2000
   -0.7335    1.1481    0.0000 C   0  0  0  0  0  0
    0.0117    0.0306    0.0000 C   0  0  0  0  0  0
    1.4695    0.0137    0.0000 C   0  0  0  0  0  0
    2.2408    1.1063    0.0000 N   0  0  0  0  0  0
    3.6034    0.7977    0.0000 C   0  0  0  0  0  0
    3.8597   -0.5501    0.0000 C   0  0  0  0  0  0
    2.3901   -1.4867    0.0000 S   0  0  0  0  0  0
   -0.2856    2.1314   -0.0000 H   0  0  0  0  0  0
   -1.8119    1.0906   -0.0000 H   0  0  0  0  0  0
   -0.4830   -0.9298    0.0000 H   0  0  0  0  0  0
    4.3244    1.6019    0.0000 H   0  0  0  0  0  0
    4.8187   -1.0463    0.0000 H   0  0  0  0  0  0
  1  2  2  0  0  0
  1  8  1  0  0  0
  1  9  1  0  0  0
  2  3  1  0  0  0
  2 10  1  0  0  0
  3  7  1  0  0  0
  3  4  2  0  0  0
  4  5  1  0  0  0
  5  6  2  0  0  0
  5 11  1  0  0  0
  6  7  1  0  0  0
  6 12  1  0  0  0
M  END
> <s_m_entry_id>
958

> <s_m_entry_name>
Spot_Xplore.std.83

> <s_m_Source_Path>
/Volumes/cluster/ddu/2448959/Work/2023/01_Fragment_screening_lib/1_Library_Construction/Work/SpotX/Ph4_Hypo_JC2

> <s_m_Source_File>
SpotX.maegz

> <i_m_Source_File_Index>
92

> <s_m_job_name>
ligprep_SpotXplore

> <i_lp_mmshare_version>
52144

> <s_epik_input>
W0NIMl09W0NIXWMxbltjSF1bY0hdczE=

> <s_epik_cmdline>
J2VwaWtfcHl0aG9uJywgJy1waHQnLCAnMS4wJywgJy1waCcsICc3LjAnLCAnLXRuJywgJzgnLCAnLW1hJywgJzIwMCcsICctaW1hZScsICc8aW5maWxlLm1hZT4nLCAnLW9tYWUnLCAnPG91dGZpbGUubWFlPic=

> <r_lp_tautomer_probability>
1

> <r_epik_Ionization_Penalty>
  0.0000

> <r_epik_Ionization_Penalty_Charging>
  0.0000

> <r_epik_Ionization_Penalty_Neutral>
  0.0000

> <r_epik_State_Penalty>
  0.0000

> <r_epik_Charging_Adjusted_Penalty>
0

> <i_epik_Tot_Q>
0

> <i_epik_Tot_abs_Q>
0

> <i_f3d_flags>
0

> <s_lp_Force_Field>
OPLS_2005

> <r_lp_Energy>
1.023826

> <b_lp_Chiralities_Consistent>
1

> <s_lp_Variant>
mol_ID_83-1

> <s_m_subgroup_title>
ligprep_SpotXplore-out1

> <s_m_subgroupid>
ligprep_SpotXplore-out1

> <b_m_subgroup_collapsed>
0

$$$$
mol_ID_84
                    3D
 Schrodinger Suite 2020-4.
 12 12  0  0  1  0            999 V2000
   -0.7375    1.1424    0.0000 C   0  0  0  0  0  0
    0.0744    0.0738    0.0000 C   0  0  0  0  0  0
    1.5028    0.0499   -0.0000 C   0  0  0  0  0  0
    2.3727    1.1153   -0.0000 C   0  0  0  0  0  0
    3.7195    0.7401   -0.0000 N   0  0  0  0  0  0
    3.8618   -0.5859   -0.0000 C   0  0  0  0  0  0
    2.3483   -1.4769    0.0000 S   0  0  0  0  0  0
   -0.3465    2.1492   -0.0000 H   0  0  0  0  0  0
   -1.8109    1.0216    0.0000 H   0  0  0  0  0  0
   -0.3991   -0.8973    0.0000 H   0  0  0  0  0  0
    2.1247    2.1666   -0.0000 H   0  0  0  0  0  0
    4.8444   -1.0338   -0.0000 H   0  0  0  0  0  0
  1  2  2  0  0  0
  1  8  1  0  0  0
  1  9  1  0  0  0
  2  3  1  0  0  0
  2 10  1  0  0  0
  3  7  1  0  0  0
  3  4  2  0  0  0
  4  5  1  0  0  0
  4 11  1  0  0  0
  5  6  2  0  0  0
  6  7  1  0  0  0
  6 12  1  0  0  0
M  END
> <s_m_entry_id>
959

> <s_m_entry_name>
Spot_Xplore.std.84

> <s_m_Source_Path>
/Volumes/cluster/ddu/2448959/Work/2023/01_Fragment_screening_lib/1_Library_Construction/Work/SpotX/Ph4_Hypo_JC2

> <s_m_Source_File>
SpotX.maegz

> <i_m_Source_File_Index>
93

> <s_m_job_name>
ligprep_SpotXplore

> <i_lp_mmshare_version>
52144

> <s_epik_input>
W0NIMl09W0NIXWMxW2NIXW5bY0hdczE=

> <s_epik_cmdline>
J2VwaWtfcHl0aG9uJywgJy1waHQnLCAnMS4wJywgJy1waCcsICc3LjAnLCAnLXRuJywgJzgnLCAnLW1hJywgJzIwMCcsICctaW1hZScsICc8aW5maWxlLm1hZT4nLCAnLW9tYWUnLCAnPG91dGZpbGUubWFlPic=

> <r_lp_tautomer_probability>
1

> <r_epik_Ionization_Penalty>
  0.0000

> <r_epik_Ionization_Penalty_Charging>
  0.0000

> <r_epik_Ionization_Penalty_Neutral>
  0.0000

> <r_epik_State_Penalty>
  0.0000

> <r_epik_Charging_Adjusted_Penalty>
0

> <i_epik_Tot_Q>
0

> <i_epik_Tot_abs_Q>
0

> <i_f3d_flags>
0

> <s_lp_Force_Field>
OPLS_2005

> <r_lp_Energy>
1.369331

> <b_lp_Chiralities_Consistent>
1

> <s_lp_Variant>
mol_ID_84-1

> <s_m_subgroup_title>
ligprep_SpotXplore-out1

> <s_m_subgroupid>
ligprep_SpotXplore-out1

> <b_m_subgroup_collapsed>
0

$$$$
mol_ID_85
                    3D
 Schrodinger Suite 2020-4.
 10 10  0  0  1  0            999 V2000
   -1.1943   -0.0121    0.0011 C   0  0  0  0  0  0
    0.0268    0.0000    0.0007 C   0  0  0  0  0  0
    1.4434    0.0146    0.0001 C   0  0  0  0  0  0
    2.2018    1.1131   -0.0003 N   0  0  0  0  0  0
    3.5663    0.8098   -0.0001 C   0  0  0  0  0  0
    3.8293   -0.5374   -0.0001 C   0  0  0  0  0  0
    2.3647   -1.4833   -0.0003 S   0  0  0  0  0  0
   -2.2611   -0.0193    0.0006 H   0  0  0  0  0  0
    4.2837    1.6170    0.0001 H   0  0  0  0  0  0
    4.7911   -1.0284    0.0001 H   0  0  0  0  0  0
  1  2  3  0  0  0
  1  8  1  0  0  0
  2  3  1  0  0  0
  3  7  1  0  0  0
  3  4  2  0  0  0
  4  5  1  0  0  0
  5  6  2  0  0  0
  5  9  1  0  0  0
  6  7  1  0  0  0
  6 10  1  0  0  0
M  END
> <s_m_entry_id>
960

> <s_m_entry_name>
Spot_Xplore.std.85

> <s_m_Source_Path>
/Volumes/cluster/ddu/2448959/Work/2023/01_Fragment_screening_lib/1_Library_Construction/Work/SpotX/Ph4_Hypo_JC2

> <s_m_Source_File>
SpotX.maegz

> <i_m_Source_File_Index>
94

> <s_m_job_name>
ligprep_SpotXplore

> <i_lp_mmshare_version>
52144

> <s_epik_input>
W0NIXSNDYzFuW2NIXVtjSF1zMQ==

> <s_epik_cmdline>
J2VwaWtfcHl0aG9uJywgJy1waHQnLCAnMS4wJywgJy1waCcsICc3LjAnLCAnLXRuJywgJzgnLCAnLW1hJywgJzIwMCcsICctaW1hZScsICc8aW5maWxlLm1hZT4nLCAnLW9tYWUnLCAnPG91dGZpbGUubWFlPic=

> <r_lp_tautomer_probability>
1

> <r_epik_Ionization_Penalty>
  0.0000

> <r_epik_Ionization_Penalty_Charging>
  0.0000

> <r_epik_Ionization_Penalty_Neutral>
  0.0000

> <r_epik_State_Penalty>
  0.0000

> <r_epik_Charging_Adjusted_Penalty>
0

> <i_epik_Tot_Q>
0

> <i_epik_Tot_abs_Q>
0

> <i_f3d_flags>
0

> <s_lp_Force_Field>
OPLS_2005

> <r_lp_Energy>
0.054567

> <b_lp_Chiralities_Consistent>
1

> <s_lp_Variant>
mol_ID_85-1

> <s_m_subgroup_title>
ligprep_SpotXplore-out1

> <s_m_subgroupid>
ligprep_SpotXplore-out1

> <b_m_subgroup_collapsed>
0

$$$$
mol_ID_86
                    3D
 Schrodinger Suite 2020-4.
 10 10  0  0  1  0            999 V2000
   -1.1378    0.0143    0.0005 C   0  0  0  0  0  0
    0.0833    0.0204   -0.0001 C   0  0  0  0  0  0
    1.4882   -0.0011   -0.0000 C   0  0  0  0  0  0
    2.2938    1.1083   -0.0000 C   0  0  0  0  0  0
    3.6521    0.7697   -0.0000 N   0  0  0  0  0  0
    3.8371   -0.5557   -0.0000 C   0  0  0  0  0  0
    2.3551   -1.5068   -0.0000 S   0  0  0  0  0  0
   -2.2047    0.0043    0.0014 H   0  0  0  0  0  0
    2.0003    2.1480   -0.0000 H   0  0  0  0  0  0
    4.8347   -0.9695    0.0000 H   0  0  0  0  0  0
  1  2  3  0  0  0
  1  8  1  0  0  0
  2  3  1  0  0  0
  3  7  1  0  0  0
  3  4  2  0  0  0
  4  5  1  0  0  0
  4  9  1  0  0  0
  5  6  2  0  0  0
  6  7  1  0  0  0
  6 10  1  0  0  0
M  END
> <s_m_entry_id>
961

> <s_m_entry_name>
Spot_Xplore.std.86

> <s_m_Source_Path>
/Volumes/cluster/ddu/2448959/Work/2023/01_Fragment_screening_lib/1_Library_Construction/Work/SpotX/Ph4_Hypo_JC2

> <s_m_Source_File>
SpotX.maegz

> <i_m_Source_File_Index>
95

> <s_m_job_name>
ligprep_SpotXplore

> <i_lp_mmshare_version>
52144

> <s_epik_input>
W0NIXSNDYzFbY0hdbltjSF1zMQ==

> <s_epik_cmdline>
J2VwaWtfcHl0aG9uJywgJy1waHQnLCAnMS4wJywgJy1waCcsICc3LjAnLCAnLXRuJywgJzgnLCAnLW1hJywgJzIwMCcsICctaW1hZScsICc8aW5maWxlLm1hZT4nLCAnLW9tYWUnLCAnPG91dGZpbGUubWFlPic=

> <r_lp_tautomer_probability>
1

> <r_epik_Ionization_Penalty>
  0.0000

> <r_epik_Ionization_Penalty_Charging>
  0.0000

> <r_epik_Ionization_Penalty_Neutral>
  0.0000

> <r_epik_State_Penalty>
  0.0000

> <r_epik_Charging_Adjusted_Penalty>
0

> <i_epik_Tot_Q>
0

> <i_epik_Tot_abs_Q>
0

> <i_f3d_flags>
0

> <s_lp_Force_Field>
OPLS_2005

> <r_lp_Energy>
1.313123

> <b_lp_Chiralities_Consistent>
1

> <s_lp_Variant>
mol_ID_86-1

> <s_m_subgroup_title>
ligprep_SpotXplore-out1

> <s_m_subgroupid>
ligprep_SpotXplore-out1

> <b_m_subgroup_collapsed>
0

$$$$
mol_ID_87
                    3D
 Schrodinger Suite 2020-4.
 14 15  0  0  1  0            999 V2000
    6.1143    0.8606   -0.0538 Cl  0  0  0  0  0  0
    4.4012    0.7370   -0.0373 C   0  0  0  0  0  0
    3.7315   -0.4230   -0.0370 N   0  0  0  0  0  0
    2.4119   -0.0113   -0.0215 C   0  0  0  0  0  0
    1.1893   -0.7199   -0.0132 C   0  0  0  0  0  0
   -0.0359   -0.0165    0.0030 C   0  0  0  0  0  0
   -0.0556    1.3964    0.0110 C   0  0  0  0  0  0
    1.1532    2.1210    0.0030 C   0  0  0  0  0  0
    2.3596    1.4022   -0.0131 C   0  0  0  0  0  0
    3.6556    1.8829   -0.0234 O   0  0  0  0  0  0
    1.1928   -1.7997   -0.0193 H   0  0  0  0  0  0
   -0.9669   -0.5643    0.0092 H   0  0  0  0  0  0
   -0.9990    1.9223    0.0234 H   0  0  0  0  0  0
    1.1532    3.2010    0.0090 H   0  0  0  0  0  0
  1  2  1  0  0  0
  2 10  1  0  0  0
  2  3  2  0  0  0
  3  4  1  0  0  0
  4  9  2  0  0  0
  4  5  1  0  0  0
  5  6  2  0  0  0
  5 11  1  0  0  0
  6  7  1  0  0  0
  6 12  1  0  0  0
  7  8  2  0  0  0
  7 13  1  0  0  0
  8  9  1  0  0  0
  8 14  1  0  0  0
  9 10  1  0  0  0
M  END
> <s_m_entry_id>
962

> <s_m_entry_name>
Spot_Xplore.std.87

> <s_m_Source_Path>
/Volumes/cluster/ddu/2448959/Work/2023/01_Fragment_screening_lib/1_Library_Construction/Work/SpotX/Ph4_Hypo_JC2

> <s_m_Source_File>
SpotX.maegz

> <i_m_Source_File_Index>
96

> <s_m_job_name>
ligprep_SpotXplore

> <i_lp_mmshare_version>
52144

> <s_epik_input>
Q2xjKG4xKW9jKGMxMilbY0hdW2NIXVtjSF1bY0hdMg==

> <s_epik_cmdline>
J2VwaWtfcHl0aG9uJywgJy1waHQnLCAnMS4wJywgJy1waCcsICc3LjAnLCAnLXRuJywgJzgnLCAnLW1hJywgJzIwMCcsICctaW1hZScsICc8aW5maWxlLm1hZT4nLCAnLW9tYWUnLCAnPG91dGZpbGUubWFlPic=

> <r_lp_tautomer_probability>
1

> <r_epik_Ionization_Penalty>
  0.0000

> <r_epik_Ionization_Penalty_Charging>
  0.0000

> <r_epik_Ionization_Penalty_Neutral>
  0.0000

> <r_epik_State_Penalty>
  0.0000

> <r_epik_Charging_Adjusted_Penalty>
0

> <i_epik_Tot_Q>
0

> <i_epik_Tot_abs_Q>
0

> <i_f3d_flags>
0

> <s_lp_Force_Field>
OPLS_2005

> <r_lp_Energy>
5.869873

> <b_lp_Chiralities_Consistent>
1

> <s_lp_Variant>
mol_ID_87-1

> <s_m_subgroup_title>
ligprep_SpotXplore-out1

> <s_m_subgroupid>
ligprep_SpotXplore-out1

> <b_m_subgroup_collapsed>
0

$$$$
mol_ID_88
                    3D
 Schrodinger Suite 2020-4.
 18 19  0  0  1  0            999 V2000
   -3.3532    2.1731   -0.0000 Br  0  0  0  0  0  0
   -1.9567    0.8811   -0.0000 C   0  0  0  0  0  0
   -2.1956   -0.4250    0.0000 N   0  0  0  0  0  0
   -0.9272   -0.9894    0.0000 C   0  0  0  0  0  0
    0.0059    0.0216    0.0000 C   0  0  0  0  0  0
    1.4664    0.0144    0.0000 C   0  0  0  0  0  0
    2.1987    1.2236    0.0000 C   0  0  0  0  0  0
    3.6072    1.2110    0.0000 C   0  0  0  0  0  0
    4.3014   -0.0128    0.0000 C   0  0  0  0  0  0
    3.5839   -1.2231    0.0000 C   0  0  0  0  0  0
    2.1754   -1.2079    0.0000 C   0  0  0  0  0  0
   -0.6456    1.2295   -0.0000 O   0  0  0  0  0  0
   -0.7894   -2.0607    0.0000 H   0  0  0  0  0  0
    1.6860    2.1742    0.0000 H   0  0  0  0  0  0
    4.1550    2.1416    0.0000 H   0  0  0  0  0  0
    5.3815   -0.0232    0.0000 H   0  0  0  0  0  0
    4.1134   -2.1645    0.0000 H   0  0  0  0  0  0
    1.6421   -2.1470    0.0000 H   0  0  0  0  0  0
  1  2  1  0  0  0
  2 12  1  0  0  0
  2  3  2  0  0  0
  3  4  1  0  0  0
  4  5  2  0  0  0
  4 13  1  0  0  0
  5  6  1  0  0  0
  5 12  1  0  0  0
  6 11  1  0  0  0
  6  7  2  0  0  0
  7  8  1  0  0  0
  7 14  1  0  0  0
  8  9  2  0  0  0
  8 15  1  0  0  0
  9 10  1  0  0  0
  9 16  1  0  0  0
 10 11  2  0  0  0
 10 17  1  0  0  0
 11 18  1  0  0  0
M  END
> <s_m_entry_id>
963

> <s_m_entry_name>
Spot_Xplore.std.88

> <s_m_Source_Path>
/Volumes/cluster/ddu/2448959/Work/2023/01_Fragment_screening_lib/1_Library_Construction/Work/SpotX/Ph4_Hypo_JC2

> <s_m_Source_File>
SpotX.maegz

> <i_m_Source_File_Index>
97

> <s_m_job_name>
ligprep_SpotXplore

> <i_lp_mmshare_version>
52144

> <s_epik_input>
QnJjMW5bY0hdYyhvMSktYzJbY0hdW2NIXVtjSF1bY0hdW2NIXTI=

> <s_epik_cmdline>
J2VwaWtfcHl0aG9uJywgJy1waHQnLCAnMS4wJywgJy1waCcsICc3LjAnLCAnLXRuJywgJzgnLCAnLW1hJywgJzIwMCcsICctaW1hZScsICc8aW5maWxlLm1hZT4nLCAnLW9tYWUnLCAnPG91dGZpbGUubWFlPic=

> <r_lp_tautomer_probability>
1

> <r_epik_Ionization_Penalty>
  0.0000

> <r_epik_Ionization_Penalty_Charging>
  0.0000

> <r_epik_Ionization_Penalty_Neutral>
  0.0000

> <r_epik_State_Penalty>
  0.0000

> <r_epik_Charging_Adjusted_Penalty>
0

> <i_epik_Tot_Q>
0

> <i_epik_Tot_abs_Q>
0

> <i_f3d_flags>
0

> <s_lp_Force_Field>
OPLS_2005

> <r_lp_Energy>
6.871756

> <b_lp_Chiralities_Consistent>
1

> <s_lp_Variant>
mol_ID_88-1

> <s_m_subgroup_title>
ligprep_SpotXplore-out1

> <s_m_subgroupid>
ligprep_SpotXplore-out1

> <b_m_subgroup_collapsed>
0

$$$$
mol_ID_89
                    3D
 Schrodinger Suite 2020-4.
 16 16  0  0  1  0            999 V2000
   -0.0603    0.0562   -0.0000 C   0  0  0  0  0  0
    1.4200   -0.0046   -0.0000 N   0  3  0  0  0  0
    2.1031    1.1708   -0.0000 C   0  0  0  0  0  0
    3.5114    1.1906   -0.0000 C   0  0  0  0  0  0
    4.2123   -0.0284   -0.0000 C   0  0  0  0  0  0
    3.4868   -1.2345    0.0000 C   0  0  0  0  0  0
    2.0741   -1.2069    0.0000 C   0  0  0  0  0  0
    1.3484   -2.4727    0.0000 C   0  0  0  0  0  0
    0.7725   -3.4758    0.0000 N   0  0  0  0  0  0
   -0.4011    1.0922   -0.0000 H   0  0  0  0  0  0
   -0.4308   -0.4426    0.8966 H   0  0  0  0  0  0
   -0.4308   -0.4426   -0.8966 H   0  0  0  0  0  0
    1.5175    2.0786   -0.0000 H   0  0  0  0  0  0
    4.0465    2.1292   -0.0000 H   0  0  0  0  0  0
    5.2926   -0.0392   -0.0000 H   0  0  0  0  0  0
    4.0179   -2.1761    0.0000 H   0  0  0  0  0  0
  1  2  1  0  0  0
  1 10  1  0  0  0
  1 11  1  0  0  0
  1 12  1  0  0  0
  2  7  1  0  0  0
  2  3  2  0  0  0
  3  4  1  0  0  0
  3 13  1  0  0  0
  4  5  2  0  0  0
  4 14  1  0  0  0
  5  6  1  0  0  0
  5 15  1  0  0  0
  6  7  2  0  0  0
  6 16  1  0  0  0
  7  8  1  0  0  0
  8  9  3  0  0  0
M  CHG  1   2   1
M  END
> <s_m_entry_id>
964

> <s_m_entry_name>
Spot_Xplore.std.89

> <s_m_Source_Path>
/Volumes/cluster/ddu/2448959/Work/2023/01_Fragment_screening_lib/1_Library_Construction/Work/SpotX/Ph4_Hypo_JC2

> <s_m_Source_File>
SpotX.maegz

> <i_m_Source_File_Index>
98

> <s_m_job_name>
ligprep_SpotXplore

> <i_lp_mmshare_version>
52144

> <s_epik_input>
W0NIM11bbitdMVtjSF1bY0hdW2NIXVtjSF1jMUMjTg==

> <s_epik_cmdline>
J2VwaWtfcHl0aG9uJywgJy1waHQnLCAnMS4wJywgJy1waCcsICc3LjAnLCAnLXRuJywgJzgnLCAnLW1hJywgJzIwMCcsICctaW1hZScsICc8aW5maWxlLm1hZT4nLCAnLW9tYWUnLCAnPG91dGZpbGUubWFlPic=

> <r_lp_tautomer_probability>
1

> <r_epik_Ionization_Penalty>
  0.0000

> <r_epik_Ionization_Penalty_Charging>
  0.0000

> <r_epik_Ionization_Penalty_Neutral>
  0.0000

> <r_epik_State_Penalty>
  0.0000

> <r_epik_Charging_Adjusted_Penalty>
0

> <i_epik_Tot_Q>
1

> <i_epik_Tot_abs_Q>
1

> <i_f3d_flags>
0

> <s_lp_Force_Field>
OPLS_2005

> <r_lp_Energy>
11.300312

> <b_lp_Chiralities_Consistent>
1

> <s_lp_Variant>
mol_ID_89-1

> <s_m_subgroup_title>
ligprep_SpotXplore-out1

> <s_m_subgroupid>
ligprep_SpotXplore-out1

> <b_m_subgroup_collapsed>
0

$$$$
mol_ID_90
                    3D
 Schrodinger Suite 2020-4.
 14 15  0  0  1  0            999 V2000
   -7.0803   -3.5929   -1.5418 Br  0  0  0  0  0  0
   -5.4548   -2.7114   -1.0940 C   0  0  0  0  0  0
   -5.3587   -1.9930    0.0258 N   0  0  0  0  0  0
   -4.0699   -1.4666    0.0977 C   0  0  0  0  0  0
   -3.5452   -0.6453    1.1229 C   0  0  0  0  0  0
   -2.2169   -0.1775    1.0745 C   0  0  0  0  0  0
   -1.3819   -0.5226   -0.0049 C   0  0  0  0  0  0
   -1.8743   -1.3378   -1.0403 C   0  0  0  0  0  0
   -3.2012   -1.8040   -0.9898 C   0  0  0  0  0  0
   -4.0523   -2.8289   -2.1487 S   0  0  0  0  0  0
   -4.1735   -0.3719    1.9578 H   0  0  0  0  0  0
   -1.8379    0.4485    1.8689 H   0  0  0  0  0  0
   -0.3643   -0.1616   -0.0379 H   0  0  0  0  0  0
   -1.2368   -1.6048   -1.8700 H   0  0  0  0  0  0
  1  2  1  0  0  0
  2 10  1  0  0  0
  2  3  2  0  0  0
  3  4  1  0  0  0
  4  9  2  0  0  0
  4  5  1  0  0  0
  5  6  2  0  0  0
  5 11  1  0  0  0
  6  7  1  0  0  0
  6 12  1  0  0  0
  7  8  2  0  0  0
  7 13  1  0  0  0
  8  9  1  0  0  0
  8 14  1  0  0  0
  9 10  1  0  0  0
M  END
> <s_m_entry_id>
965

> <s_m_entry_name>
Spot_Xplore.std.90

> <s_m_Source_Path>
/Volumes/cluster/ddu/2448959/Work/2023/01_Fragment_screening_lib/1_Library_Construction/Work/SpotX/Ph4_Hypo_JC2

> <s_m_Source_File>
SpotX.maegz

> <i_m_Source_File_Index>
99

> <s_m_job_name>
ligprep_SpotXplore

> <i_lp_mmshare_version>
52144

> <s_epik_input>
QnJjKG4xKXNjKGMxMilbY0hdW2NIXVtjSF1bY0hdMg==

> <s_epik_cmdline>
J2VwaWtfcHl0aG9uJywgJy1waHQnLCAnMS4wJywgJy1waCcsICc3LjAnLCAnLXRuJywgJzgnLCAnLW1hJywgJzIwMCcsICctaW1hZScsICc8aW5maWxlLm1hZT4nLCAnLW9tYWUnLCAnPG91dGZpbGUubWFlPic=

> <r_lp_tautomer_probability>
1

> <r_epik_Ionization_Penalty>
  0.0000

> <r_epik_Ionization_Penalty_Charging>
  0.0000

> <r_epik_Ionization_Penalty_Neutral>
  0.0000

> <r_epik_State_Penalty>
  0.0000

> <r_epik_Charging_Adjusted_Penalty>
0

> <i_epik_Tot_Q>
0

> <i_epik_Tot_abs_Q>
0

> <i_f3d_flags>
0

> <s_lp_Force_Field>
OPLS_2005

> <r_lp_Energy>
4.640645

> <b_lp_Chiralities_Consistent>
1

> <s_lp_Variant>
mol_ID_90-1

> <s_m_subgroup_title>
ligprep_SpotXplore-out1

> <s_m_subgroupid>
ligprep_SpotXplore-out1

> <b_m_subgroup_collapsed>
0

$$$$
mol_ID_91
                    3D
 Schrodinger Suite 2020-4.
 14 14  0  0  1  0            999 V2000
   -1.1786    0.0344    0.0009 C   0  0  0  0  0  0
    0.0423    0.0080    0.0005 C   0  0  0  0  0  0
    1.4636   -0.0214    0.0002 C   0  0  0  0  0  0
    2.2452    1.0530    0.0002 N   0  0  0  0  0  0
    3.5399    0.5436   -0.0001 C   0  0  0  0  0  0
    3.4913   -0.8302   -0.0001 C   0  0  0  0  0  0
    2.1475   -1.1839    0.0001 N   0  0  0  0  0  0
    1.6286   -2.5411    0.0000 C   0  0  0  0  0  0
   -2.2454    0.0558    0.0005 H   0  0  0  0  0  0
    4.3983    1.1991   -0.0002 H   0  0  0  0  0  0
    4.2818   -1.5663   -0.0003 H   0  0  0  0  0  0
    2.4499   -3.2585    0.0000 H   0  0  0  0  0  0
    1.0190   -2.7039   -0.8891 H   0  0  0  0  0  0
    1.0190   -2.7040    0.8892 H   0  0  0  0  0  0
  1  2  3  0  0  0
  1  9  1  0  0  0
  2  3  1  0  0  0
  3  7  1  0  0  0
  3  4  2  0  0  0
  4  5  1  0  0  0
  5  6  2  0  0  0
  5 10  1  0  0  0
  6  7  1  0  0  0
  6 11  1  0  0  0
  7  8  1  0  0  0
  8 12  1  0  0  0
  8 13  1  0  0  0
  8 14  1  0  0  0
M  END
> <s_m_entry_id>
966

> <s_m_entry_name>
Spot_Xplore.std.91

> <s_m_Source_Path>
/Volumes/cluster/ddu/2448959/Work/2023/01_Fragment_screening_lib/1_Library_Construction/Work/SpotX/Ph4_Hypo_JC2

> <s_m_Source_File>
SpotX.maegz

> <i_m_Source_File_Index>
100

> <s_m_job_name>
ligprep_SpotXplore

> <i_lp_mmshare_version>
52144

> <s_epik_input>
W0NIXSNDYzFuW2NIXVtjSF1uMVtDSDNd

> <s_epik_cmdline>
J2VwaWtfcHl0aG9uJywgJy1waHQnLCAnMS4wJywgJy1waCcsICc3LjAnLCAnLXRuJywgJzgnLCAnLW1hJywgJzIwMCcsICctaW1hZScsICc8aW5maWxlLm1hZT4nLCAnLW9tYWUnLCAnPG91dGZpbGUubWFlPic=

> <r_epik_Ionization_Penalty>
  0.0133

> <r_epik_Ionization_Penalty_Charging>
  0.0133

> <r_epik_Ionization_Penalty_Neutral>
  0.0000

> <r_epik_State_Penalty>
  0.0104

> <r_epik_Charging_Adjusted_Penalty>
0.0236921868811556

> <i_epik_Tot_Q>
0

> <i_epik_Tot_abs_Q>
0

> <i_f3d_flags>
0

> <s_lp_Force_Field>
OPLS_2005

> <r_lp_Energy>
2.719683

> <b_lp_Chiralities_Consistent>
1

> <s_lp_Variant>
mol_ID_91-1

> <s_m_subgroup_title>
ligprep_SpotXplore-out1

> <s_m_subgroupid>
ligprep_SpotXplore-out1

> <b_m_subgroup_collapsed>
0

$$$$
mol_ID_92
                    3D
 Schrodinger Suite 2020-4.
 18 19  0  0  1  0            999 V2000
   -3.6531    1.9730    0.0000 I   0  0  0  0  0  0
   -2.0157    0.6735    0.0000 C   0  0  0  0  0  0
   -0.7616    1.1083    0.0000 N   0  0  0  0  0  0
    0.0099   -0.0518    0.0000 C   0  0  0  0  0  0
    1.4784   -0.0205    0.0000 C   0  0  0  0  0  0
    2.1823    1.2063    0.0000 C   0  0  0  0  0  0
    3.5907    1.2241    0.0000 C   0  0  0  0  0  0
    4.3115    0.0155    0.0000 C   0  0  0  0  0  0
    3.6211   -1.2108    0.0000 C   0  0  0  0  0  0
    2.2127   -1.2282    0.0000 C   0  0  0  0  0  0
   -0.8618   -1.1180    0.0000 C   0  0  0  0  0  0
   -2.1569   -0.6739    0.0000 O   0  0  0  0  0  0
    1.6502    2.1461    0.0000 H   0  0  0  0  0  0
    4.1180    2.1667    0.0000 H   0  0  0  0  0  0
    5.3915    0.0291    0.0000 H   0  0  0  0  0  0
    4.1724   -2.1395    0.0000 H   0  0  0  0  0  0
    1.7021   -2.1797   -0.0000 H   0  0  0  0  0  0
   -0.7283   -2.1895    0.0000 H   0  0  0  0  0  0
  1  2  1  0  0  0
  2 12  1  0  0  0
  2  3  2  0  0  0
  3  4  1  0  0  0
  4  5  1  0  0  0
  4 11  2  0  0  0
  5 10  1  0  0  0
  5  6  2  0  0  0
  6  7  1  0  0  0
  6 13  1  0  0  0
  7  8  2  0  0  0
  7 14  1  0  0  0
  8  9  1  0  0  0
  8 15  1  0  0  0
  9 10  2  0  0  0
  9 16  1  0  0  0
 10 17  1  0  0  0
 11 12  1  0  0  0
 11 18  1  0  0  0
M  END
> <s_m_entry_id>
967

> <s_m_entry_name>
Spot_Xplore.std.92

> <s_m_Source_Path>
/Volumes/cluster/ddu/2448959/Work/2023/01_Fragment_screening_lib/1_Library_Construction/Work/SpotX/Ph4_Hypo_JC2

> <s_m_Source_File>
SpotX.maegz

> <i_m_Source_File_Index>
101

> <s_m_job_name>
ligprep_SpotXplore

> <i_lp_mmshare_version>
52144

> <s_epik_input>
SWMxbmMoW2NIXW8xKS1jMltjSF1bY0hdW2NIXVtjSF1bY0hdMg==

> <s_epik_cmdline>
J2VwaWtfcHl0aG9uJywgJy1waHQnLCAnMS4wJywgJy1waCcsICc3LjAnLCAnLXRuJywgJzgnLCAnLW1hJywgJzIwMCcsICctaW1hZScsICc8aW5maWxlLm1hZT4nLCAnLW9tYWUnLCAnPG91dGZpbGUubWFlPic=

> <r_lp_tautomer_probability>
1

> <r_epik_Ionization_Penalty>
  0.0000

> <r_epik_Ionization_Penalty_Charging>
  0.0000

> <r_epik_Ionization_Penalty_Neutral>
  0.0000

> <r_epik_State_Penalty>
  0.0000

> <r_epik_Charging_Adjusted_Penalty>
0

> <i_epik_Tot_Q>
0

> <i_epik_Tot_abs_Q>
0

> <i_f3d_flags>
0

> <s_lp_Force_Field>
OPLS_2005

> <r_lp_Energy>
7.85951

> <b_lp_Chiralities_Consistent>
1

> <s_lp_Variant>
mol_ID_92-1

> <s_m_subgroup_title>
ligprep_SpotXplore-out1

> <s_m_subgroupid>
ligprep_SpotXplore-out1

> <b_m_subgroup_collapsed>
0

$$$$
mol_ID_93
                    3D
 Schrodinger Suite 2020-4.
 17 17  0  0  1  0            999 V2000
   -1.2064    0.0025    0.0009 C   0  0  0  0  0  0
    0.0147    0.0012   -0.0004 C   0  0  0  0  0  0
    1.4675    0.0106   -0.0001 C   0  0  0  0  0  0
    2.1760    1.2305   -0.0000 C   0  0  0  0  0  0
    3.5849    1.2058    0.0000 C   0  0  0  0  0  0
    4.2505   -0.0369    0.0000 C   0  0  0  0  0  0
    3.5451   -1.1948    0.0000 N   0  3  0  0  0  0
    4.2852   -2.4657    0.0000 C   0  0  0  0  0  0
    2.1879   -1.2028   -0.0000 C   0  0  0  0  0  0
   -2.2735    0.0064    0.0014 H   0  0  0  0  0  0
    1.6516    2.1756   -0.0000 H   0  0  0  0  0  0
    4.1470    2.1283    0.0000 H   0  0  0  0  0  0
    5.3273   -0.1301   -0.0000 H   0  0  0  0  0  0
    3.5917   -3.3074   -0.0000 H   0  0  0  0  0  0
    4.9082   -2.5013    0.8945 H   0  0  0  0  0  0
    4.9082   -2.5012   -0.8945 H   0  0  0  0  0  0
    1.7081   -2.1712   -0.0000 H   0  0  0  0  0  0
  1  2  3  0  0  0
  1 10  1  0  0  0
  2  3  1  0  0  0
  3  9  1  0  0  0
  3  4  2  0  0  0
  4  5  1  0  0  0
  4 11  1  0  0  0
  5  6  2  0  0  0
  5 12  1  0  0  0
  6  7  1  0  0  0
  6 13  1  0  0  0
  7  8  1  0  0  0
  7  9  2  0  0  0
  8 14  1  0  0  0
  8 15  1  0  0  0
  8 16  1  0  0  0
  9 17  1  0  0  0
M  CHG  1   7   1
M  END
> <s_m_entry_id>
968

> <s_m_entry_name>
Spot_Xplore.std.93

> <s_m_Source_Path>
/Volumes/cluster/ddu/2448959/Work/2023/01_Fragment_screening_lib/1_Library_Construction/Work/SpotX/Ph4_Hypo_JC2

> <s_m_Source_File>
SpotX.maegz

> <i_m_Source_File_Index>
102

> <s_m_job_name>
ligprep_SpotXplore

> <i_lp_mmshare_version>
52144

> <s_epik_input>
W0NIXSNDYzFbY0hdW2NIXVtjSF1bbitdKFtDSDNdKVtjSF0x

> <s_epik_cmdline>
J2VwaWtfcHl0aG9uJywgJy1waHQnLCAnMS4wJywgJy1waCcsICc3LjAnLCAnLXRuJywgJzgnLCAnLW1hJywgJzIwMCcsICctaW1hZScsICc8aW5maWxlLm1hZT4nLCAnLW9tYWUnLCAnPG91dGZpbGUubWFlPic=

> <r_lp_tautomer_probability>
1

> <r_epik_Ionization_Penalty>
  0.0000

> <r_epik_Ionization_Penalty_Charging>
  0.0000

> <r_epik_Ionization_Penalty_Neutral>
  0.0000

> <r_epik_State_Penalty>
  0.0000

> <r_epik_Charging_Adjusted_Penalty>
0

> <i_epik_Tot_Q>
1

> <i_epik_Tot_abs_Q>
1

> <i_f3d_flags>
0

> <s_lp_Force_Field>
OPLS_2005

> <r_lp_Energy>
8.712076

> <b_lp_Chiralities_Consistent>
1

> <s_lp_Variant>
mol_ID_93-1

> <s_m_subgroup_title>
ligprep_SpotXplore-out1

> <s_m_subgroupid>
ligprep_SpotXplore-out1

> <b_m_subgroup_collapsed>
0

$$$$
mol_ID_94
                    3D
 Schrodinger Suite 2020-4.
 15 15  0  0  1  0            999 V2000
   -0.0281   -0.0051   -0.0000 C   0  0  0  0  0  0
    1.4424    0.0092   -0.0000 N   0  3  0  0  0  0
    2.1078    1.1924   -0.0000 C   0  0  0  0  0  0
    3.5178    1.2180   -0.0000 C   0  0  0  0  0  0
    4.2270    0.0005   -0.0000 C   0  0  0  0  0  0
    3.5084   -1.2114   -0.0000 C   0  0  0  0  0  0
    4.4284   -2.8765   -0.0000 Br  0  0  0  0  0  0
    2.0993   -1.1767   -0.0000 C   0  0  0  0  0  0
   -0.4163    1.0141    0.0000 H   0  0  0  0  0  0
   -0.3667   -0.5289    0.8947 H   0  0  0  0  0  0
   -0.3667   -0.5289   -0.8947 H   0  0  0  0  0  0
    1.5079    2.0908   -0.0000 H   0  0  0  0  0  0
    4.0486    2.1590   -0.0000 H   0  0  0  0  0  0
    5.3072   -0.0030   -0.0000 H   0  0  0  0  0  0
    1.4857   -2.0662   -0.0000 H   0  0  0  0  0  0
  1  2  1  0  0  0
  1  9  1  0  0  0
  1 10  1  0  0  0
  1 11  1  0  0  0
  2  8  1  0  0  0
  2  3  2  0  0  0
  3  4  1  0  0  0
  3 12  1  0  0  0
  4  5  2  0  0  0
  4 13  1  0  0  0
  5  6  1  0  0  0
  5 14  1  0  0  0
  6  7  1  0  0  0
  6  8  2  0  0  0
  8 15  1  0  0  0
M  CHG  1   2   1
M  END
> <s_m_entry_id>
969

> <s_m_entry_name>
Spot_Xplore.std.94

> <s_m_Source_Path>
/Volumes/cluster/ddu/2448959/Work/2023/01_Fragment_screening_lib/1_Library_Construction/Work/SpotX/Ph4_Hypo_JC2

> <s_m_Source_File>
SpotX.maegz

> <i_m_Source_File_Index>
103

> <s_m_job_name>
ligprep_SpotXplore

> <i_lp_mmshare_version>
52144

> <s_epik_input>
W0NIM11bbitdMVtjSF1bY0hdW2NIXWMoQnIpW2NIXTE=

> <s_epik_cmdline>
J2VwaWtfcHl0aG9uJywgJy1waHQnLCAnMS4wJywgJy1waCcsICc3LjAnLCAnLXRuJywgJzgnLCAnLW1hJywgJzIwMCcsICctaW1hZScsICc8aW5maWxlLm1hZT4nLCAnLW9tYWUnLCAnPG91dGZpbGUubWFlPic=

> <r_lp_tautomer_probability>
1

> <r_epik_Ionization_Penalty>
  0.0000

> <r_epik_Ionization_Penalty_Charging>
  0.0000

> <r_epik_Ionization_Penalty_Neutral>
  0.0000

> <r_epik_State_Penalty>
  0.0000

> <r_epik_Charging_Adjusted_Penalty>
0

> <i_epik_Tot_Q>
1

> <i_epik_Tot_abs_Q>
1

> <i_f3d_flags>
0

> <s_lp_Force_Field>
OPLS_2005

> <r_lp_Energy>
8.483146

> <b_lp_Chiralities_Consistent>
1

> <s_lp_Variant>
mol_ID_94-1

> <s_m_subgroup_title>
ligprep_SpotXplore-out1

> <s_m_subgroupid>
ligprep_SpotXplore-out1

> <b_m_subgroup_collapsed>
0

$$$$
mol_ID_95
                    3D
 Schrodinger Suite 2020-4.
 15 15  0  0  1  0            999 V2000
   -0.0293   -0.0041   -0.0000 C   0  0  0  0  0  0
    1.4412    0.0094   -0.0000 N   0  3  0  0  0  0
    2.1071    1.1924   -0.0000 C   0  0  0  0  0  0
    3.5170    1.2175   -0.0000 C   0  0  0  0  0  0
    4.2247   -0.0008   -0.0000 C   0  0  0  0  0  0
    6.1269   -0.0081   -0.0000 Br  0  0  0  0  0  0
    3.5077   -1.2136   -0.0000 C   0  0  0  0  0  0
    2.0982   -1.1769    0.0000 C   0  0  0  0  0  0
   -0.4170    1.0151    0.0000 H   0  0  0  0  0  0
   -0.3683   -0.5276    0.8947 H   0  0  0  0  0  0
   -0.3683   -0.5276   -0.8947 H   0  0  0  0  0  0
    1.5077    2.0911   -0.0000 H   0  0  0  0  0  0
    4.0481    2.1584   -0.0000 H   0  0  0  0  0  0
    4.0310   -2.1587    0.0000 H   0  0  0  0  0  0
    1.4842   -2.0664    0.0000 H   0  0  0  0  0  0
  1  2  1  0  0  0
  1  9  1  0  0  0
  1 10  1  0  0  0
  1 11  1  0  0  0
  2  8  1  0  0  0
  2  3  2  0  0  0
  3  4  1  0  0  0
  3 12  1  0  0  0
  4  5  2  0  0  0
  4 13  1  0  0  0
  5  6  1  0  0  0
  5  7  1  0  0  0
  7  8  2  0  0  0
  7 14  1  0  0  0
  8 15  1  0  0  0
M  CHG  1   2   1
M  END
> <s_m_entry_id>
970

> <s_m_entry_name>
Spot_Xplore.std.95

> <s_m_Source_Path>
/Volumes/cluster/ddu/2448959/Work/2023/01_Fragment_screening_lib/1_Library_Construction/Work/SpotX/Ph4_Hypo_JC2

> <s_m_Source_File>
SpotX.maegz

> <i_m_Source_File_Index>
104

> <s_m_job_name>
ligprep_SpotXplore

> <i_lp_mmshare_version>
52144

> <s_epik_input>
W0NIM11bbitdMVtjSF1bY0hdYyhCcilbY0hdW2NIXTE=

> <s_epik_cmdline>
J2VwaWtfcHl0aG9uJywgJy1waHQnLCAnMS4wJywgJy1waCcsICc3LjAnLCAnLXRuJywgJzgnLCAnLW1hJywgJzIwMCcsICctaW1hZScsICc8aW5maWxlLm1hZT4nLCAnLW9tYWUnLCAnPG91dGZpbGUubWFlPic=

> <r_lp_tautomer_probability>
1

> <r_epik_Ionization_Penalty>
  0.0000

> <r_epik_Ionization_Penalty_Charging>
  0.0000

> <r_epik_Ionization_Penalty_Neutral>
  0.0000

> <r_epik_State_Penalty>
  0.0000

> <r_epik_Charging_Adjusted_Penalty>
0

> <i_epik_Tot_Q>
1

> <i_epik_Tot_abs_Q>
1

> <i_f3d_flags>
0

> <s_lp_Force_Field>
OPLS_2005

> <r_lp_Energy>
8.562451

> <b_lp_Chiralities_Consistent>
1

> <s_lp_Variant>
mol_ID_95-1

> <s_m_subgroup_title>
ligprep_SpotXplore-out1

> <s_m_subgroupid>
ligprep_SpotXplore-out1

> <b_m_subgroup_collapsed>
0

$$$$
mol_ID_96
                    3D
 Schrodinger Suite 2020-4.
 15 15  0  0  1  0            999 V2000
   -0.0291   -0.0042    0.0000 C   0  0  0  0  0  0
    1.4414    0.0094    0.0000 N   0  3  0  0  0  0
    2.1072    1.1924    0.0000 C   0  0  0  0  0  0
    3.5171    1.2175    0.0000 C   0  0  0  0  0  0
    4.2250   -0.0007    0.0000 C   0  0  0  0  0  0
    6.3155   -0.0083    0.0000 I   0  0  0  0  0  0
    3.5078   -1.2134    0.0000 C   0  0  0  0  0  0
    2.0984   -1.1768   -0.0000 C   0  0  0  0  0  0
   -0.4168    1.0150   -0.0000 H   0  0  0  0  0  0
   -0.3680   -0.5278    0.8948 H   0  0  0  0  0  0
   -0.3680   -0.5278   -0.8948 H   0  0  0  0  0  0
    1.5077    2.0911    0.0000 H   0  0  0  0  0  0
    4.0478    2.1585    0.0000 H   0  0  0  0  0  0
    4.0307   -2.1587   -0.0000 H   0  0  0  0  0  0
    1.4844   -2.0662   -0.0000 H   0  0  0  0  0  0
  1  2  1  0  0  0
  1  9  1  0  0  0
  1 10  1  0  0  0
  1 11  1  0  0  0
  2  8  1  0  0  0
  2  3  2  0  0  0
  3  4  1  0  0  0
  3 12  1  0  0  0
  4  5  2  0  0  0
  4 13  1  0  0  0
  5  6  1  0  0  0
  5  7  1  0  0  0
  7  8  2  0  0  0
  7 14  1  0  0  0
  8 15  1  0  0  0
M  CHG  1   2   1
M  END
> <s_m_entry_id>
971

> <s_m_entry_name>
Spot_Xplore.std.96

> <s_m_Source_Path>
/Volumes/cluster/ddu/2448959/Work/2023/01_Fragment_screening_lib/1_Library_Construction/Work/SpotX/Ph4_Hypo_JC2

> <s_m_Source_File>
SpotX.maegz

> <i_m_Source_File_Index>
105

> <s_m_job_name>
ligprep_SpotXplore

> <i_lp_mmshare_version>
52144

> <s_epik_input>
W0NIM11bbitdMVtjSF1bY0hdYyhJKVtjSF1bY0hdMQ==

> <s_epik_cmdline>
J2VwaWtfcHl0aG9uJywgJy1waHQnLCAnMS4wJywgJy1waCcsICc3LjAnLCAnLXRuJywgJzgnLCAnLW1hJywgJzIwMCcsICctaW1hZScsICc8aW5maWxlLm1hZT4nLCAnLW9tYWUnLCAnPG91dGZpbGUubWFlPic=

> <r_lp_tautomer_probability>
1

> <r_epik_Ionization_Penalty>
  0.0000

> <r_epik_Ionization_Penalty_Charging>
  0.0000

> <r_epik_Ionization_Penalty_Neutral>
  0.0000

> <r_epik_State_Penalty>
  0.0000

> <r_epik_Charging_Adjusted_Penalty>
0

> <i_epik_Tot_Q>
1

> <i_epik_Tot_abs_Q>
1

> <i_f3d_flags>
0

> <s_lp_Force_Field>
OPLS_2005

> <r_lp_Energy>
8.850988

> <b_lp_Chiralities_Consistent>
1

> <s_lp_Variant>
mol_ID_96-1

> <s_m_subgroup_title>
ligprep_SpotXplore-out1

> <s_m_subgroupid>
ligprep_SpotXplore-out1

> <b_m_subgroup_collapsed>
0

$$$$
mol_ID_97
                    3D
 Schrodinger Suite 2020-4.
 16 16  0  0  1  0            999 V2000
   -0.0246   -0.0072   -0.0000 C   0  0  0  0  0  0
    1.4458    0.0010   -0.0000 N   0  3  0  0  0  0
    2.1155    1.1814   -0.0000 C   0  0  0  0  0  0
    3.5253    1.2014   -0.0000 C   0  0  0  0  0  0
    4.2304   -0.0186   -0.0000 C   0  0  0  0  0  0
    3.5078   -1.2299   -0.0000 C   0  0  0  0  0  0
    4.2047   -2.5046    0.0000 C   0  0  0  0  0  0
    4.7594   -3.5195    0.0000 N   0  0  0  0  0  0
    2.0975   -1.1879    0.0000 C   0  0  0  0  0  0
   -0.4089    1.0135    0.0000 H   0  0  0  0  0  0
   -0.3653   -0.5297    0.8946 H   0  0  0  0  0  0
   -0.3653   -0.5297   -0.8946 H   0  0  0  0  0  0
    1.5188    2.0821   -0.0000 H   0  0  0  0  0  0
    4.0595    2.1406   -0.0000 H   0  0  0  0  0  0
    5.3114   -0.0185   -0.0000 H   0  0  0  0  0  0
    1.4758   -2.0725    0.0000 H   0  0  0  0  0  0
  1  2  1  0  0  0
  1 10  1  0  0  0
  1 11  1  0  0  0
  1 12  1  0  0  0
  2  9  1  0  0  0
  2  3  2  0  0  0
  3  4  1  0  0  0
  3 13  1  0  0  0
  4  5  2  0  0  0
  4 14  1  0  0  0
  5  6  1  0  0  0
  5 15  1  0  0  0
  6  7  1  0  0  0
  6  9  2  0  0  0
  7  8  3  0  0  0
  9 16  1  0  0  0
M  CHG  1   2   1
M  END
> <s_m_entry_id>
972

> <s_m_entry_name>
Spot_Xplore.std.97

> <s_m_Source_Path>
/Volumes/cluster/ddu/2448959/Work/2023/01_Fragment_screening_lib/1_Library_Construction/Work/SpotX/Ph4_Hypo_JC2

> <s_m_Source_File>
SpotX.maegz

> <i_m_Source_File_Index>
106

> <s_m_job_name>
ligprep_SpotXplore

> <i_lp_mmshare_version>
52144

> <s_epik_input>
W0NIM11bbitdMVtjSF1bY0hdW2NIXWMoQyNOKVtjSF0x

> <s_epik_cmdline>
J2VwaWtfcHl0aG9uJywgJy1waHQnLCAnMS4wJywgJy1waCcsICc3LjAnLCAnLXRuJywgJzgnLCAnLW1hJywgJzIwMCcsICctaW1hZScsICc8aW5maWxlLm1hZT4nLCAnLW9tYWUnLCAnPG91dGZpbGUubWFlPic=

> <r_lp_tautomer_probability>
1

> <r_epik_Ionization_Penalty>
  0.0000

> <r_epik_Ionization_Penalty_Charging>
  0.0000

> <r_epik_Ionization_Penalty_Neutral>
  0.0000

> <r_epik_State_Penalty>
  0.0000

> <r_epik_Charging_Adjusted_Penalty>
0

> <i_epik_Tot_Q>
1

> <i_epik_Tot_abs_Q>
1

> <i_f3d_flags>
0

> <s_lp_Force_Field>
OPLS_2005

> <r_lp_Energy>
8.685531

> <b_lp_Chiralities_Consistent>
1

> <s_lp_Variant>
mol_ID_97-1

> <s_m_subgroup_title>
ligprep_SpotXplore-out1

> <s_m_subgroupid>
ligprep_SpotXplore-out1

> <b_m_subgroup_collapsed>
0

$$$$
mol_ID_98
                    3D
 Schrodinger Suite 2020-4.
 14 14  0  0  1  0            999 V2000
    0.0031   -0.0041   -0.0000 C   0  0  0  0  0  0
    1.4727    0.0111    0.0000 N   0  3  0  0  0  0
    2.1463    1.1880    0.0000 C   0  0  0  0  0  0
    3.5562    1.1591    0.0000 C   0  0  0  0  0  0
    4.2568    0.0034    0.0000 N   0  0  0  0  0  0
    3.5540   -1.1520    0.0000 C   0  0  0  0  0  0
    4.5904   -2.9674    0.0000 I   0  0  0  0  0  0
    2.1426   -1.1668    0.0000 C   0  0  0  0  0  0
   -0.3835    1.0157   -0.0000 H   0  0  0  0  0  0
   -0.3358   -0.5279    0.8946 H   0  0  0  0  0  0
   -0.3358   -0.5279   -0.8946 H   0  0  0  0  0  0
    1.5644    2.0985    0.0000 H   0  0  0  0  0  0
    4.1284    2.0751    0.0000 H   0  0  0  0  0  0
    1.5475   -2.0690   -0.0000 H   0  0  0  0  0  0
  1  2  1  0  0  0
  1  9  1  0  0  0
  1 10  1  0  0  0
  1 11  1  0  0  0
  2  8  1  0  0  0
  2  3  2  0  0  0
  3  4  1  0  0  0
  3 12  1  0  0  0
  4  5  2  0  0  0
  4 13  1  0  0  0
  5  6  1  0  0  0
  6  7  1  0  0  0
  6  8  2  0  0  0
  8 14  1  0  0  0
M  CHG  1   2   1
M  END
> <s_m_entry_id>
973

> <s_m_entry_name>
Spot_Xplore.std.98

> <s_m_Source_Path>
/Volumes/cluster/ddu/2448959/Work/2023/01_Fragment_screening_lib/1_Library_Construction/Work/SpotX/Ph4_Hypo_JC2

> <s_m_Source_File>
SpotX.maegz

> <i_m_Source_File_Index>
107

> <s_m_job_name>
ligprep_SpotXplore

> <i_lp_mmshare_version>
52144

> <s_epik_input>
W0NIM11bbitdMVtjSF1bY0hdbmMoSSlbY0hdMQ==

> <s_epik_cmdline>
J2VwaWtfcHl0aG9uJywgJy1waHQnLCAnMS4wJywgJy1waCcsICc3LjAnLCAnLXRuJywgJzgnLCAnLW1hJywgJzIwMCcsICctaW1hZScsICc8aW5maWxlLm1hZT4nLCAnLW9tYWUnLCAnPG91dGZpbGUubWFlPic=

> <r_lp_tautomer_probability>
1

> <r_epik_Ionization_Penalty>
  0.0000

> <r_epik_Ionization_Penalty_Charging>
  0.0000

> <r_epik_Ionization_Penalty_Neutral>
  0.0000

> <r_epik_State_Penalty>
  0.0000

> <r_epik_Charging_Adjusted_Penalty>
0

> <i_epik_Tot_Q>
1

> <i_epik_Tot_abs_Q>
1

> <i_f3d_flags>
0

> <s_lp_Force_Field>
OPLS_2005

> <r_lp_Energy>
7.406686

> <b_lp_Chiralities_Consistent>
1

> <s_lp_Variant>
mol_ID_98-1

> <s_m_subgroup_title>
ligprep_SpotXplore-out1

> <s_m_subgroupid>
ligprep_SpotXplore-out1

> <b_m_subgroup_collapsed>
0

$$$$
mol_ID_99
                    3D
 Schrodinger Suite 2020-4.
 14 14  0  0  1  0            999 V2000
    0.0028   -0.0040   -0.0000 C   0  0  0  0  0  0
    1.4725    0.0113    0.0000 N   0  3  0  0  0  0
    2.1460    1.1882    0.0000 C   0  0  0  0  0  0
    3.5559    1.1589    0.0000 C   0  0  0  0  0  0
    4.2564    0.0032    0.0000 N   0  0  0  0  0  0
    3.5537   -1.1521    0.0000 C   0  0  0  0  0  0
    4.4980   -2.8035    0.0000 Br  0  0  0  0  0  0
    2.1423   -1.1665    0.0000 C   0  0  0  0  0  0
   -0.3838    1.0158   -0.0000 H   0  0  0  0  0  0
   -0.3359   -0.5278    0.8946 H   0  0  0  0  0  0
   -0.3359   -0.5278   -0.8946 H   0  0  0  0  0  0
    1.5641    2.0987    0.0000 H   0  0  0  0  0  0
    4.1284    2.0748    0.0000 H   0  0  0  0  0  0
    1.5476   -2.0689   -0.0000 H   0  0  0  0  0  0
  1  2  1  0  0  0
  1  9  1  0  0  0
  1 10  1  0  0  0
  1 11  1  0  0  0
  2  8  1  0  0  0
  2  3  2  0  0  0
  3  4  1  0  0  0
  3 12  1  0  0  0
  4  5  2  0  0  0
  4 13  1  0  0  0
  5  6  1  0  0  0
  6  7  1  0  0  0
  6  8  2  0  0  0
  8 14  1  0  0  0
M  CHG  1   2   1
M  END
> <s_m_entry_id>
974

> <s_m_entry_name>
Spot_Xplore.std.99

> <s_m_Source_Path>
/Volumes/cluster/ddu/2448959/Work/2023/01_Fragment_screening_lib/1_Library_Construction/Work/SpotX/Ph4_Hypo_JC2

> <s_m_Source_File>
SpotX.maegz

> <i_m_Source_File_Index>
108

> <s_m_job_name>
ligprep_SpotXplore

> <i_lp_mmshare_version>
52144

> <s_epik_input>
W0NIM11bbitdMVtjSF1bY0hdbmMoQnIpW2NIXTE=

> <s_epik_cmdline>
J2VwaWtfcHl0aG9uJywgJy1waHQnLCAnMS4wJywgJy1waCcsICc3LjAnLCAnLXRuJywgJzgnLCAnLW1hJywgJzIwMCcsICctaW1hZScsICc8aW5maWxlLm1hZT4nLCAnLW9tYWUnLCAnPG91dGZpbGUubWFlPic=

> <r_lp_tautomer_probability>
1

> <r_epik_Ionization_Penalty>
  0.0000

> <r_epik_Ionization_Penalty_Charging>
  0.0000

> <r_epik_Ionization_Penalty_Neutral>
  0.0000

> <r_epik_State_Penalty>
  0.0000

> <r_epik_Charging_Adjusted_Penalty>
0

> <i_epik_Tot_Q>
1

> <i_epik_Tot_abs_Q>
1

> <i_f3d_flags>
0

> <s_lp_Force_Field>
OPLS_2005

> <r_lp_Energy>
7.099882

> <b_lp_Chiralities_Consistent>
1

> <s_lp_Variant>
mol_ID_99-1

> <s_m_subgroup_title>
ligprep_SpotXplore-out1

> <s_m_subgroupid>
ligprep_SpotXplore-out1

> <b_m_subgroup_collapsed>
0

$$$$
mol_ID_100
                    3D
 Schrodinger Suite 2020-4.
 15 15  0  0  1  0            999 V2000
   -0.0366    0.0289    0.0000 C   0  0  0  0  0  0
    1.4369   -0.0006    0.0000 N   0  3  0  0  0  0
    2.1162    1.1756    0.0000 C   0  0  0  0  0  0
    3.5247    1.1915    0.0000 C   0  0  0  0  0  0
    4.2210   -0.0310    0.0000 C   0  0  0  0  0  0
    3.4901   -1.2344    0.0000 C   0  0  0  0  0  0
    2.0789   -1.2017    0.0000 C   0  0  0  0  0  0
    1.1291   -2.8565    0.0000 Br  0  0  0  0  0  0
   -0.3968    1.0582    0.0000 H   0  0  0  0  0  0
   -0.3932   -0.4805    0.8960 H   0  0  0  0  0  0
   -0.3932   -0.4805   -0.8960 H   0  0  0  0  0  0
    1.5276    2.0815    0.0000 H   0  0  0  0  0  0
    4.0630    2.1285    0.0000 H   0  0  0  0  0  0
    5.3013   -0.0464    0.0000 H   0  0  0  0  0  0
    4.0102   -2.1814    0.0000 H   0  0  0  0  0  0
  1  2  1  0  0  0
  1  9  1  0  0  0
  1 10  1  0  0  0
  1 11  1  0  0  0
  2  7  1  0  0  0
  2  3  2  0  0  0
  3  4  1  0  0  0
  3 12  1  0  0  0
  4  5  2  0  0  0
  4 13  1  0  0  0
  5  6  1  0  0  0
  5 14  1  0  0  0
  6  7  2  0  0  0
  6 15  1  0  0  0
  7  8  1  0  0  0
M  CHG  1   2   1
M  END
> <s_m_entry_id>
975

> <s_m_entry_name>
Spot_Xplore.std.100

> <s_m_Source_Path>
/Volumes/cluster/ddu/2448959/Work/2023/01_Fragment_screening_lib/1_Library_Construction/Work/SpotX/Ph4_Hypo_JC2

> <s_m_Source_File>
SpotX.maegz

> <i_m_Source_File_Index>
109

> <s_m_job_name>
ligprep_SpotXplore

> <i_lp_mmshare_version>
52144

> <s_epik_input>
W0NIM11bbitdMVtjSF1bY0hdW2NIXVtjSF1jMUJy

> <s_epik_cmdline>
J2VwaWtfcHl0aG9uJywgJy1waHQnLCAnMS4wJywgJy1waCcsICc3LjAnLCAnLXRuJywgJzgnLCAnLW1hJywgJzIwMCcsICctaW1hZScsICc8aW5maWxlLm1hZT4nLCAnLW9tYWUnLCAnPG91dGZpbGUubWFlPic=

> <r_lp_tautomer_probability>
1

> <r_epik_Ionization_Penalty>
  0.0000

> <r_epik_Ionization_Penalty_Charging>
  0.0000

> <r_epik_Ionization_Penalty_Neutral>
  0.0000

> <r_epik_State_Penalty>
  0.0000

> <r_epik_Charging_Adjusted_Penalty>
0

> <i_epik_Tot_Q>
1

> <i_epik_Tot_abs_Q>
1

> <i_f3d_flags>
0

> <s_lp_Force_Field>
OPLS_2005

> <r_lp_Energy>
9.936071

> <b_lp_Chiralities_Consistent>
1

> <s_lp_Variant>
mol_ID_100-1

> <s_m_subgroup_title>
ligprep_SpotXplore-out1

> <s_m_subgroupid>
ligprep_SpotXplore-out1

> <b_m_subgroup_collapsed>
0

$$$$
mol_ID_101
                    3D
 Schrodinger Suite 2020-4.
 16 16  0  0  1  0            999 V2000
   -1.1785    0.0193    0.0007 C   0  0  0  0  0  0
    0.0426    0.0047    0.0004 C   0  0  0  0  0  0
    1.4946   -0.0237    0.0001 C   0  0  0  0  0  0
    2.2204    1.1878    0.0000 C   0  0  0  0  0  0
    3.5746    1.1401   -0.0001 N   0  3  0  0  0  0
    4.3318    2.3994   -0.0000 C   0  0  0  0  0  0
    4.2242   -0.0502   -0.0000 C   0  0  0  0  0  0
    3.4613   -1.2364   -0.0000 C   0  0  0  0  0  0
    2.1097   -1.2282    0.0001 N   0  0  0  0  0  0
   -2.2455    0.0265    0.0009 H   0  0  0  0  0  0
    1.7667    2.1692    0.0000 H   0  0  0  0  0  0
    5.4029    2.1939   -0.0000 H   0  0  0  0  0  0
    4.0630    2.9624    0.8947 H   0  0  0  0  0  0
    4.0631    2.9625   -0.8947 H   0  0  0  0  0  0
    5.3046   -0.0306   -0.0001 H   0  0  0  0  0  0
    3.9416   -2.2038   -0.0001 H   0  0  0  0  0  0
  1  2  3  0  0  0
  1 10  1  0  0  0
  2  3  1  0  0  0
  3  9  1  0  0  0
  3  4  2  0  0  0
  4  5  1  0  0  0
  4 11  1  0  0  0
  5  6  1  0  0  0
  5  7  2  0  0  0
  6 12  1  0  0  0
  6 13  1  0  0  0
  6 14  1  0  0  0
  7  8  1  0  0  0
  7 15  1  0  0  0
  8  9  2  0  0  0
  8 16  1  0  0  0
M  CHG  1   5   1
M  END
> <s_m_entry_id>
976

> <s_m_entry_name>
Spot_Xplore.std.101

> <s_m_Source_Path>
/Volumes/cluster/ddu/2448959/Work/2023/01_Fragment_screening_lib/1_Library_Construction/Work/SpotX/Ph4_Hypo_JC2

> <s_m_Source_File>
SpotX.maegz

> <i_m_Source_File_Index>
110

> <s_m_job_name>
ligprep_SpotXplore

> <i_lp_mmshare_version>
52144

> <s_epik_input>
W0NIXSNDYzFbY0hdW24rXShbQ0gzXSlbY0hdW2NIXW4x

> <s_epik_cmdline>
J2VwaWtfcHl0aG9uJywgJy1waHQnLCAnMS4wJywgJy1waCcsICc3LjAnLCAnLXRuJywgJzgnLCAnLW1hJywgJzIwMCcsICctaW1hZScsICc8aW5maWxlLm1hZT4nLCAnLW9tYWUnLCAnPG91dGZpbGUubWFlPic=

> <r_lp_tautomer_probability>
1

> <r_epik_Ionization_Penalty>
  0.0000

> <r_epik_Ionization_Penalty_Charging>
  0.0000

> <r_epik_Ionization_Penalty_Neutral>
  0.0000

> <r_epik_State_Penalty>
  0.0000

> <r_epik_Charging_Adjusted_Penalty>
0

> <i_epik_Tot_Q>
1

> <i_epik_Tot_abs_Q>
1

> <i_f3d_flags>
0

> <s_lp_Force_Field>
OPLS_2005

> <r_lp_Energy>
7.388054

> <b_lp_Chiralities_Consistent>
1

> <s_lp_Variant>
mol_ID_101-1

> <s_m_subgroup_title>
ligprep_SpotXplore-out1

> <s_m_subgroupid>
ligprep_SpotXplore-out1

> <b_m_subgroup_collapsed>
0

$$$$
mol_ID_102
                    3D
 Schrodinger Suite 2020-4.
 18 18  0  0  1  0            999 V2000
   -0.7900    1.1081    0.0000 C   0  0  0  0  0  0
    0.0071    0.0266    0.0000 C   0  0  0  0  0  0
    1.4785    0.0357    0.0000 C   0  0  0  0  0  0
    2.1987   -1.1727   -0.0000 C   0  0  0  0  0  0
    3.5454   -1.1974   -0.0000 N   0  0  0  0  0  0
    4.2161   -0.0399   -0.0000 C   0  0  0  0  0  0
    3.6125    1.1616   -0.0000 N   0  3  0  0  0  0
    4.4229    2.3870    0.0000 C   0  0  0  0  0  0
    2.2527    1.2171    0.0000 C   0  0  0  0  0  0
   -0.4012    2.1152   -0.0000 H   0  0  0  0  0  0
   -1.8642    0.9939    0.0000 H   0  0  0  0  0  0
   -0.4624   -0.9470    0.0000 H   0  0  0  0  0  0
    1.6946   -2.1283   -0.0000 H   0  0  0  0  0  0
    5.2968   -0.0491   -0.0000 H   0  0  0  0  0  0
    3.7749    3.2642    0.0000 H   0  0  0  0  0  0
    5.0460    2.3870   -0.8951 H   0  0  0  0  0  0
    5.0460    2.3870    0.8951 H   0  0  0  0  0  0
    1.8228    2.2078    0.0000 H   0  0  0  0  0  0
  1  2  2  0  0  0
  1 10  1  0  0  0
  1 11  1  0  0  0
  2  3  1  0  0  0
  2 12  1  0  0  0
  3  9  1  0  0  0
  3  4  2  0  0  0
  4  5  1  0  0  0
  4 13  1  0  0  0
  5  6  2  0  0  0
  6  7  1  0  0  0
  6 14  1  0  0  0
  7  8  1  0  0  0
  7  9  2  0  0  0
  8 15  1  0  0  0
  8 16  1  0  0  0
  8 17  1  0  0  0
  9 18  1  0  0  0
M  CHG  1   7   1
M  END
> <s_m_entry_id>
977

> <s_m_entry_name>
Spot_Xplore.std.102

> <s_m_Source_Path>
/Volumes/cluster/ddu/2448959/Work/2023/01_Fragment_screening_lib/1_Library_Construction/Work/SpotX/Ph4_Hypo_JC2

> <s_m_Source_File>
SpotX.maegz

> <i_m_Source_File_Index>
111

> <s_m_job_name>
ligprep_SpotXplore

> <i_lp_mmshare_version>
52144

> <s_epik_input>
W0NIMl09W0NIXWMxW2NIXW5bY0hdW24rXShbQ0gzXSlbY0hdMQ==

> <s_epik_cmdline>
J2VwaWtfcHl0aG9uJywgJy1waHQnLCAnMS4wJywgJy1waCcsICc3LjAnLCAnLXRuJywgJzgnLCAnLW1hJywgJzIwMCcsICctaW1hZScsICc8aW5maWxlLm1hZT4nLCAnLW9tYWUnLCAnPG91dGZpbGUubWFlPic=

> <r_lp_tautomer_probability>
1

> <r_epik_Ionization_Penalty>
  0.0000

> <r_epik_Ionization_Penalty_Charging>
  0.0000

> <r_epik_Ionization_Penalty_Neutral>
  0.0000

> <r_epik_State_Penalty>
  0.0000

> <r_epik_Charging_Adjusted_Penalty>
0

> <i_epik_Tot_Q>
1

> <i_epik_Tot_abs_Q>
1

> <i_f3d_flags>
0

> <s_lp_Force_Field>
OPLS_2005

> <r_lp_Energy>
9.42653

> <b_lp_Chiralities_Consistent>
1

> <s_lp_Variant>
mol_ID_102-1

> <s_epik_Chemistry_Notes>
This compound contains an electron-poor aromatic ring that is susceptible to covalent hydrolysis at low pH, typically resulting in measured values for nitrogen ring protonation that are around two units higher than predicted values.

> <s_m_subgroup_title>
ligprep_SpotXplore-out1

> <s_m_subgroupid>
ligprep_SpotXplore-out1

> <b_m_subgroup_collapsed>
0

$$$$
mol_ID_103
                    3D
 Schrodinger Suite 2020-4.
 14 14  0  0  1  0            999 V2000
   -0.0300   -0.0010   -0.0000 C   0  0  0  0  0  0
    1.4391    0.0144    0.0000 N   0  3  0  0  0  0
    2.1236    1.1747    0.0000 C   0  0  0  0  0  0
    3.4617    1.2383    0.0000 N   0  0  0  0  0  0
    4.1730    0.0933    0.0000 C   0  0  0  0  0  0
    3.5364   -1.1578    0.0000 C   0  0  0  0  0  0
    4.5296   -2.7805    0.0000 Br  0  0  0  0  0  0
    2.1294   -1.1574    0.0000 C   0  0  0  0  0  0
   -0.4146    1.0197   -0.0000 H   0  0  0  0  0  0
   -0.3684   -0.5246    0.8949 H   0  0  0  0  0  0
   -0.3684   -0.5246   -0.8949 H   0  0  0  0  0  0
    1.5515    2.0915    0.0000 H   0  0  0  0  0  0
    5.2499    0.1774    0.0000 H   0  0  0  0  0  0
    1.5373   -2.0615   -0.0000 H   0  0  0  0  0  0
  1  2  1  0  0  0
  1  9  1  0  0  0
  1 10  1  0  0  0
  1 11  1  0  0  0
  2  8  1  0  0  0
  2  3  2  0  0  0
  3  4  1  0  0  0
  3 12  1  0  0  0
  4  5  2  0  0  0
  5  6  1  0  0  0
  5 13  1  0  0  0
  6  7  1  0  0  0
  6  8  2  0  0  0
  8 14  1  0  0  0
M  CHG  1   2   1
M  END
> <s_m_entry_id>
978

> <s_m_entry_name>
Spot_Xplore.std.103

> <s_m_Source_Path>
/Volumes/cluster/ddu/2448959/Work/2023/01_Fragment_screening_lib/1_Library_Construction/Work/SpotX/Ph4_Hypo_JC2

> <s_m_Source_File>
SpotX.maegz

> <i_m_Source_File_Index>
112

> <s_m_job_name>
ligprep_SpotXplore

> <i_lp_mmshare_version>
52144

> <s_epik_input>
W0NIM11bbitdMVtjSF1uW2NIXWMoQnIpW2NIXTE=

> <s_epik_cmdline>
J2VwaWtfcHl0aG9uJywgJy1waHQnLCAnMS4wJywgJy1waCcsICc3LjAnLCAnLXRuJywgJzgnLCAnLW1hJywgJzIwMCcsICctaW1hZScsICc8aW5maWxlLm1hZT4nLCAnLW9tYWUnLCAnPG91dGZpbGUubWFlPic=

> <r_lp_tautomer_probability>
1

> <r_epik_Ionization_Penalty>
  0.0000

> <r_epik_Ionization_Penalty_Charging>
  0.0000

> <r_epik_Ionization_Penalty_Neutral>
  0.0000

> <r_epik_State_Penalty>
  0.0000

> <r_epik_Charging_Adjusted_Penalty>
0

> <i_epik_Tot_Q>
1

> <i_epik_Tot_abs_Q>
1

> <i_f3d_flags>
0

> <s_lp_Force_Field>
OPLS_2005

> <r_lp_Energy>
7.100494

> <b_lp_Chiralities_Consistent>
1

> <s_lp_Variant>
mol_ID_103-1

> <s_epik_Chemistry_Notes>
This compound contains an electron-poor aromatic ring that is susceptible to covalent hydrolysis at low pH, typically resulting in measured values for nitrogen ring protonation that are around two units higher than predicted values.

> <s_m_subgroup_title>
ligprep_SpotXplore-out1

> <s_m_subgroupid>
ligprep_SpotXplore-out1

> <b_m_subgroup_collapsed>
0

$$$$
mol_ID_104
                    3D
 Schrodinger Suite 2020-4.
 16 16  0  0  1  0            999 V2000
    0.0249   -0.0325    0.0000 C   0  0  0  0  0  0
    1.4872    0.0212   -0.0000 N   0  0  0  0  0  0
    2.2841    1.1377   -0.0000 C   0  0  0  0  0  0
    3.5873    0.6986   -0.0000 C   0  0  0  0  0  0
    3.5503   -0.6732   -0.0000 N   0  3  0  0  0  0
    4.7052   -1.5751   -0.0000 C   0  0  0  0  0  0
    2.2692   -1.0635   -0.0000 C   0  0  0  0  0  0
    1.6969   -2.6971    0.0000 Cl  0  0  0  0  0  0
   -0.3780    0.9807    0.0000 H   0  0  0  0  0  0
   -0.3167   -0.5583    0.8922 H   0  0  0  0  0  0
   -0.3167   -0.5583   -0.8922 H   0  0  0  0  0  0
    1.8781    2.1389   -0.0000 H   0  0  0  0  0  0
    4.5168    1.2497   -0.0000 H   0  0  0  0  0  0
    4.3914   -2.6182   -0.0000 H   0  0  0  0  0  0
    5.3047   -1.3810    0.8898 H   0  0  0  0  0  0
    5.3047   -1.3810   -0.8898 H   0  0  0  0  0  0
  1  2  1  0  0  0
  1  9  1  0  0  0
  1 10  1  0  0  0
  1 11  1  0  0  0
  2  7  1  0  0  0
  2  3  1  0  0  0
  3  4  2  0  0  0
  3 12  1  0  0  0
  4  5  1  0  0  0
  4 13  1  0  0  0
  5  6  1  0  0  0
  5  7  2  0  0  0
  6 14  1  0  0  0
  6 15  1  0  0  0
  6 16  1  0  0  0
  7  8  1  0  0  0
M  CHG  1   5   1
M  END
> <s_m_entry_id>
979

> <s_m_entry_name>
Spot_Xplore.std.104

> <s_m_Source_Path>
/Volumes/cluster/ddu/2448959/Work/2023/01_Fragment_screening_lib/1_Library_Construction/Work/SpotX/Ph4_Hypo_JC2

> <s_m_Source_File>
SpotX.maegz

> <i_m_Source_File_Index>
113

> <s_m_job_name>
ligprep_SpotXplore

> <i_lp_mmshare_version>
52144

> <s_epik_input>
W0NIM11uMVtjSF1bY0hdW24rXShbQ0gzXSljMUNs

> <s_epik_cmdline>
J2VwaWtfcHl0aG9uJywgJy1waHQnLCAnMS4wJywgJy1waCcsICc3LjAnLCAnLXRuJywgJzgnLCAnLW1hJywgJzIwMCcsICctaW1hZScsICc8aW5maWxlLm1hZT4nLCAnLW9tYWUnLCAnPG91dGZpbGUubWFlPic=

> <r_lp_tautomer_probability>
1

> <r_epik_Ionization_Penalty>
  0.0000

> <r_epik_Ionization_Penalty_Charging>
  0.0000

> <r_epik_Ionization_Penalty_Neutral>
  0.0000

> <r_epik_State_Penalty>
  0.0000

> <r_epik_Charging_Adjusted_Penalty>
0

> <i_epik_Tot_Q>
1

> <i_epik_Tot_abs_Q>
1

> <i_f3d_flags>
0

> <s_lp_Force_Field>
OPLS_2005

> <r_lp_Energy>
6.940977

> <b_lp_Chiralities_Consistent>
1

> <s_lp_Variant>
mol_ID_104-1

> <s_m_subgroup_title>
ligprep_SpotXplore-out1

> <s_m_subgroupid>
ligprep_SpotXplore-out1

> <b_m_subgroup_collapsed>
0

$$$$
mol_ID_105
                    3D
 Schrodinger Suite 2020-4.
 18 18  0  0  1  0            999 V2000
   -1.2071    0.1427    0.0006 C   0  0  0  0  0  0
    0.0106    0.0524    0.0005 C   0  0  0  0  0  0
    1.4598   -0.0680    0.0003 C   0  0  0  0  0  0
    2.3756    0.9775    0.0001 C   0  0  0  0  0  0
    3.6672    0.4511   -0.0001 C   0  0  0  0  0  0
    3.5059   -0.9076   -0.0001 N   0  3  0  0  0  0
    4.5414   -1.9469   -0.0001 C   0  0  0  0  0  0
    2.1762   -1.2284    0.0001 N   0  0  0  0  0  0
    1.7288   -2.6298    0.0001 C   0  0  0  0  0  0
   -2.2715    0.2183    0.0007 H   0  0  0  0  0  0
    2.1286    2.0293    0.0001 H   0  0  0  0  0  0
    4.6399    0.9216   -0.0003 H   0  0  0  0  0  0
    5.5244   -1.4752   -0.0001 H   0  0  0  0  0  0
    4.4429   -2.5629   -0.8944 H   0  0  0  0  0  0
    4.4430   -2.5629    0.8942 H   0  0  0  0  0  0
    0.6399   -2.6736    0.0000 H   0  0  0  0  0  0
    2.1011   -3.1314    0.8936 H   0  0  0  0  0  0
    2.1011   -3.1313   -0.8935 H   0  0  0  0  0  0
  1  2  3  0  0  0
  1 10  1  0  0  0
  2  3  1  0  0  0
  3  8  1  0  0  0
  3  4  2  0  0  0
  4  5  1  0  0  0
  4 11  1  0  0  0
  5  6  2  0  0  0
  5 12  1  0  0  0
  6  7  1  0  0  0
  6  8  1  0  0  0
  7 13  1  0  0  0
  7 14  1  0  0  0
  7 15  1  0  0  0
  8  9  1  0  0  0
  9 16  1  0  0  0
  9 17  1  0  0  0
  9 18  1  0  0  0
M  CHG  1   6   1
M  END
> <s_m_entry_id>
980

> <s_m_entry_name>
Spot_Xplore.std.105

> <s_m_Source_Path>
/Volumes/cluster/ddu/2448959/Work/2023/01_Fragment_screening_lib/1_Library_Construction/Work/SpotX/Ph4_Hypo_JC2

> <s_m_Source_File>
SpotX.maegz

> <i_m_Source_File_Index>
114

> <s_m_job_name>
ligprep_SpotXplore

> <i_lp_mmshare_version>
52144

> <s_epik_input>
W0NIXSNDYzFbY0hdW2NIXVtuK10oW0NIM10pbjFbQ0gzXQ==

> <s_epik_cmdline>
J2VwaWtfcHl0aG9uJywgJy1waHQnLCAnMS4wJywgJy1waCcsICc3LjAnLCAnLXRuJywgJzgnLCAnLW1hJywgJzIwMCcsICctaW1hZScsICc8aW5maWxlLm1hZT4nLCAnLW9tYWUnLCAnPG91dGZpbGUubWFlPic=

> <r_lp_tautomer_probability>
1

> <r_epik_Ionization_Penalty>
  0.0000

> <r_epik_Ionization_Penalty_Charging>
  0.0000

> <r_epik_Ionization_Penalty_Neutral>
  0.0000

> <r_epik_State_Penalty>
  0.0000

> <r_epik_Charging_Adjusted_Penalty>
0

> <i_epik_Tot_Q>
1

> <i_epik_Tot_abs_Q>
1

> <i_f3d_flags>
0

> <s_lp_Force_Field>
OPLS_2005

> <r_lp_Energy>
14.222127

> <b_lp_Chiralities_Consistent>
1

> <s_lp_Variant>
mol_ID_105-1

> <s_m_subgroup_title>
ligprep_SpotXplore-out1

> <s_m_subgroupid>
ligprep_SpotXplore-out1

> <b_m_subgroup_collapsed>
0

$$$$
mol_ID_106
                    3D
 Schrodinger Suite 2020-4.
 20 20  0  0  1  0            999 V2000
   -0.6821    1.2178    0.0000 C   0  0  0  0  0  0
   -0.0033    0.0596    0.0000 C   0  0  0  0  0  0
    1.4637   -0.0501    0.0000 C   0  0  0  0  0  0
    2.3976    0.9835    0.0000 C   0  0  0  0  0  0
    3.6837    0.4471    0.0000 C   0  0  0  0  0  0
    3.5095   -0.9079    0.0000 N   0  3  0  0  0  0
    4.5369   -1.9556   -0.0000 C   0  0  0  0  0  0
    2.1766   -1.2157   -0.0000 N   0  0  0  0  0  0
    1.7278   -2.6171   -0.0000 C   0  0  0  0  0  0
   -0.1805    2.1743   -0.0000 H   0  0  0  0  0  0
   -1.7624    1.2222    0.0000 H   0  0  0  0  0  0
   -0.5707   -0.8583    0.0000 H   0  0  0  0  0  0
    2.1682    2.0388    0.0000 H   0  0  0  0  0  0
    4.6606    0.9084    0.0000 H   0  0  0  0  0  0
    5.5234   -1.4914    0.0000 H   0  0  0  0  0  0
    4.4342   -2.5704   -0.8946 H   0  0  0  0  0  0
    4.4342   -2.5704    0.8946 H   0  0  0  0  0  0
    0.6407   -2.6691   -0.0000 H   0  0  0  0  0  0
    2.1013   -3.1187    0.8931 H   0  0  0  0  0  0
    2.1013   -3.1187   -0.8931 H   0  0  0  0  0  0
  1  2  2  0  0  0
  1 10  1  0  0  0
  1 11  1  0  0  0
  2  3  1  0  0  0
  2 12  1  0  0  0
  3  8  1  0  0  0
  3  4  2  0  0  0
  4  5  1  0  0  0
  4 13  1  0  0  0
  5  6  2  0  0  0
  5 14  1  0  0  0
  6  7  1  0  0  0
  6  8  1  0  0  0
  7 15  1  0  0  0
  7 16  1  0  0  0
  7 17  1  0  0  0
  8  9  1  0  0  0
  9 18  1  0  0  0
  9 19  1  0  0  0
  9 20  1  0  0  0
M  CHG  1   6   1
M  END
> <s_m_entry_id>
981

> <s_m_entry_name>
Spot_Xplore.std.106

> <s_m_Source_Path>
/Volumes/cluster/ddu/2448959/Work/2023/01_Fragment_screening_lib/1_Library_Construction/Work/SpotX/Ph4_Hypo_JC2

> <s_m_Source_File>
SpotX.maegz

> <i_m_Source_File_Index>
115

> <s_m_job_name>
ligprep_SpotXplore

> <i_lp_mmshare_version>
52144

> <s_epik_input>
W0NIMl09W0NIXWMxW2NIXVtjSF1bbitdKFtDSDNdKW4xW0NIM10=

> <s_epik_cmdline>
J2VwaWtfcHl0aG9uJywgJy1waHQnLCAnMS4wJywgJy1waCcsICc3LjAnLCAnLXRuJywgJzgnLCAnLW1hJywgJzIwMCcsICctaW1hZScsICc8aW5maWxlLm1hZT4nLCAnLW9tYWUnLCAnPG91dGZpbGUubWFlPic=

> <r_lp_tautomer_probability>
1

> <r_epik_Ionization_Penalty>
  0.0000

> <r_epik_Ionization_Penalty_Charging>
  0.0000

> <r_epik_Ionization_Penalty_Neutral>
  0.0000

> <r_epik_State_Penalty>
  0.0000

> <r_epik_Charging_Adjusted_Penalty>
0

> <i_epik_Tot_Q>
1

> <i_epik_Tot_abs_Q>
1

> <i_f3d_flags>
0

> <s_lp_Force_Field>
OPLS_2005

> <r_lp_Energy>
15.426405

> <b_lp_Chiralities_Consistent>
1

> <s_lp_Variant>
mol_ID_106-1

> <s_m_subgroup_title>
ligprep_SpotXplore-out1

> <s_m_subgroupid>
ligprep_SpotXplore-out1

> <b_m_subgroup_collapsed>
0

$$$$
mol_ID_107
                    3D
 Schrodinger Suite 2020-4.
 16 16  0  0  1  0            999 V2000
   -0.0190   -0.0550   -0.0000 C   0  0  0  0  0  0
    1.4455    0.0464    0.0000 N   0  0  0  0  0  0
    2.2476    1.1450    0.0000 C   0  0  0  0  0  0
    1.6618    2.9564    0.0000 Br  0  0  0  0  0  0
    3.5620    0.6965    0.0000 C   0  0  0  0  0  0
    3.5626   -0.6986    0.0000 C   0  0  0  0  0  0
    2.2431   -1.0632   -0.0000 N   0  3  0  0  0  0
    1.6698   -2.4131   -0.0000 C   0  0  0  0  0  0
   -0.4555    0.9438   -0.0000 H   0  0  0  0  0  0
   -0.3482   -0.5854    0.8938 H   0  0  0  0  0  0
   -0.3482   -0.5854   -0.8938 H   0  0  0  0  0  0
    4.4398    1.3258    0.0000 H   0  0  0  0  0  0
    4.3653   -1.4218   -0.0000 H   0  0  0  0  0  0
    2.4764   -3.1468   -0.0000 H   0  0  0  0  0  0
    1.0620   -2.5526   -0.8944 H   0  0  0  0  0  0
    1.0620   -2.5526    0.8944 H   0  0  0  0  0  0
  1  2  1  0  0  0
  1  9  1  0  0  0
  1 10  1  0  0  0
  1 11  1  0  0  0
  2  7  1  0  0  0
  2  3  1  0  0  0
  3  4  1  0  0  0
  3  5  2  0  0  0
  5  6  1  0  0  0
  5 12  1  0  0  0
  6  7  2  0  0  0
  6 13  1  0  0  0
  7  8  1  0  0  0
  8 14  1  0  0  0
  8 15  1  0  0  0
  8 16  1  0  0  0
M  CHG  1   7   1
M  END
> <s_m_entry_id>
982

> <s_m_entry_name>
Spot_Xplore.std.107

> <s_m_Source_Path>
/Volumes/cluster/ddu/2448959/Work/2023/01_Fragment_screening_lib/1_Library_Construction/Work/SpotX/Ph4_Hypo_JC2

> <s_m_Source_File>
SpotX.maegz

> <i_m_Source_File_Index>
116

> <s_m_job_name>
ligprep_SpotXplore

> <i_lp_mmshare_version>
52144

> <s_epik_input>
W0NIM11uMWMoQnIpW2NIXVtjSF1bbitdMVtDSDNd

> <s_epik_cmdline>
J2VwaWtfcHl0aG9uJywgJy1waHQnLCAnMS4wJywgJy1waCcsICc3LjAnLCAnLXRuJywgJzgnLCAnLW1hJywgJzIwMCcsICctaW1hZScsICc8aW5maWxlLm1hZT4nLCAnLW9tYWUnLCAnPG91dGZpbGUubWFlPic=

> <r_lp_tautomer_probability>
1

> <r_epik_Ionization_Penalty>
  0.0000

> <r_epik_Ionization_Penalty_Charging>
  0.0000

> <r_epik_Ionization_Penalty_Neutral>
  0.0000

> <r_epik_State_Penalty>
  0.0000

> <r_epik_Charging_Adjusted_Penalty>
0

> <i_epik_Tot_Q>
1

> <i_epik_Tot_abs_Q>
1

> <i_f3d_flags>
0

> <s_lp_Force_Field>
OPLS_2005

> <r_lp_Energy>
13.945145

> <b_lp_Chiralities_Consistent>
1

> <s_lp_Variant>
mol_ID_107-1

> <s_m_subgroup_title>
ligprep_SpotXplore-out1

> <s_m_subgroupid>
ligprep_SpotXplore-out1

> <b_m_subgroup_collapsed>
0

$$$$
mol_ID_108
                    3D
 Schrodinger Suite 2020-4.
 19 19  0  0  1  0            999 V2000
   -0.7283    1.2202    0.0000 C   0  0  0  0  0  0
   -0.0034    0.0878    0.0000 C   0  0  0  0  0  0
    1.4789   -0.0151   -0.0000 C   0  0  0  0  0  0
    2.2834    1.1534   -0.0000 C   0  0  0  0  0  0
    3.6870    1.0564   -0.0000 C   0  0  0  0  0  0
    4.2841   -0.2141   -0.0000 C   0  0  0  0  0  0
    3.4580   -1.3520   -0.0000 C   0  0  0  0  0  0
    2.1033   -1.2365   -0.0000 N   0  3  0  0  0  0
    1.3174   -2.4897    0.0000 C   0  0  0  0  0  0
   -0.2840    2.2032   -0.0000 H   0  0  0  0  0  0
   -1.8077    1.1727    0.0000 H   0  0  0  0  0  0
   -0.5725   -0.8285    0.0000 H   0  0  0  0  0  0
    1.8448    2.1391   -0.0000 H   0  0  0  0  0  0
    4.2972    1.9479   -0.0000 H   0  0  0  0  0  0
    5.3597   -0.3158   -0.0000 H   0  0  0  0  0  0
    3.8667   -2.3520   -0.0000 H   0  0  0  0  0  0
    1.9770   -3.3580    0.0000 H   0  0  0  0  0  0
    0.6994   -2.5141   -0.8983 H   0  0  0  0  0  0
    0.6994   -2.5141    0.8983 H   0  0  0  0  0  0
  1  2  2  0  0  0
  1 10  1  0  0  0
  1 11  1  0  0  0
  2  3  1  0  0  0
  2 12  1  0  0  0
  3  8  1  0  0  0
  3  4  2  0  0  0
  4  5  1  0  0  0
  4 13  1  0  0  0
  5  6  2  0  0  0
  5 14  1  0  0  0
  6  7  1  0  0  0
  6 15  1  0  0  0
  7  8  2  0  0  0
  7 16  1  0  0  0
  8  9  1  0  0  0
  9 17  1  0  0  0
  9 18  1  0  0  0
  9 19  1  0  0  0
M  CHG  1   8   1
M  END
> <s_m_entry_id>
983

> <s_m_entry_name>
Spot_Xplore.std.108

> <s_m_Source_Path>
/Volumes/cluster/ddu/2448959/Work/2023/01_Fragment_screening_lib/1_Library_Construction/Work/SpotX/Ph4_Hypo_JC2

> <s_m_Source_File>
SpotX.maegz

> <i_m_Source_File_Index>
117

> <s_m_job_name>
ligprep_SpotXplore

> <i_lp_mmshare_version>
52144

> <s_epik_input>
W0NIMl09W0NIXWMxW2NIXVtjSF1bY0hdW2NIXVtuK10xW0NIM10=

> <s_epik_cmdline>
J2VwaWtfcHl0aG9uJywgJy1waHQnLCAnMS4wJywgJy1waCcsICc3LjAnLCAnLXRuJywgJzgnLCAnLW1hJywgJzIwMCcsICctaW1hZScsICc8aW5maWxlLm1hZT4nLCAnLW9tYWUnLCAnPG91dGZpbGUubWFlPic=

> <r_lp_tautomer_probability>
1

> <r_epik_Ionization_Penalty>
  0.0000

> <r_epik_Ionization_Penalty_Charging>
  0.0000

> <r_epik_Ionization_Penalty_Neutral>
  0.0000

> <r_epik_State_Penalty>
  0.0000

> <r_epik_Charging_Adjusted_Penalty>
0

> <i_epik_Tot_Q>
1

> <i_epik_Tot_abs_Q>
1

> <i_f3d_flags>
0

> <s_lp_Force_Field>
OPLS_2005

> <r_lp_Energy>
15.24515

> <b_lp_Chiralities_Consistent>
1

> <s_lp_Variant>
mol_ID_108-1

> <s_m_subgroup_title>
ligprep_SpotXplore-out1

> <s_m_subgroupid>
ligprep_SpotXplore-out1

> <b_m_subgroup_collapsed>
0

$$$$
mol_ID_109
                    3D
 Schrodinger Suite 2020-4.
 15 15  0  0  1  0            999 V2000
   -0.0257   -0.0073    0.0000 C   0  0  0  0  0  0
    1.4433    0.0016    0.0000 N   0  3  0  0  0  0
    2.1403    1.1699    0.0000 C   0  0  0  0  0  0
    3.5478    1.1648    0.0000 C   0  0  0  0  0  0
    4.1785   -0.0916    0.0000 C   0  0  0  0  0  0
    5.6284   -0.1858    0.0000 C   0  0  0  0  0  0
    6.7830   -0.2600    0.0000 N   0  0  0  0  0  0
    3.4578   -1.2310    0.0000 N   0  0  0  0  0  0
    2.1208   -1.1605   -0.0000 C   0  0  0  0  0  0
   -0.4056    1.0150   -0.0000 H   0  0  0  0  0  0
   -0.3665   -0.5295    0.8949 H   0  0  0  0  0  0
   -0.3665   -0.5295   -0.8949 H   0  0  0  0  0  0
    1.5590    2.0807    0.0000 H   0  0  0  0  0  0
    4.1121    2.0867    0.0000 H   0  0  0  0  0  0
    1.5377   -2.0704   -0.0000 H   0  0  0  0  0  0
  1  2  1  0  0  0
  1 10  1  0  0  0
  1 11  1  0  0  0
  1 12  1  0  0  0
  2  9  1  0  0  0
  2  3  2  0  0  0
  3  4  1  0  0  0
  3 13  1  0  0  0
  4  5  2  0  0  0
  4 14  1  0  0  0
  5  6  1  0  0  0
  5  8  1  0  0  0
  6  7  3  0  0  0
  8  9  2  0  0  0
  9 15  1  0  0  0
M  CHG  1   2   1
M  END
> <s_m_entry_id>
984

> <s_m_entry_name>
Spot_Xplore.std.109

> <s_m_Source_Path>
/Volumes/cluster/ddu/2448959/Work/2023/01_Fragment_screening_lib/1_Library_Construction/Work/SpotX/Ph4_Hypo_JC2

> <s_m_Source_File>
SpotX.maegz

> <i_m_Source_File_Index>
118

> <s_m_job_name>
ligprep_SpotXplore

> <i_lp_mmshare_version>
52144

> <s_epik_input>
W0NIM11bbitdMVtjSF1bY0hdYyhDI04pbltjSF0x

> <s_epik_cmdline>
J2VwaWtfcHl0aG9uJywgJy1waHQnLCAnMS4wJywgJy1waCcsICc3LjAnLCAnLXRuJywgJzgnLCAnLW1hJywgJzIwMCcsICctaW1hZScsICc8aW5maWxlLm1hZT4nLCAnLW9tYWUnLCAnPG91dGZpbGUubWFlPic=

> <r_lp_tautomer_probability>
1

> <r_epik_Ionization_Penalty>
  0.0000

> <r_epik_Ionization_Penalty_Charging>
  0.0000

> <r_epik_Ionization_Penalty_Neutral>
  0.0000

> <r_epik_State_Penalty>
  0.0000

> <r_epik_Charging_Adjusted_Penalty>
0

> <i_epik_Tot_Q>
1

> <i_epik_Tot_abs_Q>
1

> <i_f3d_flags>
0

> <s_lp_Force_Field>
OPLS_2005

> <r_lp_Energy>
6.111312

> <b_lp_Chiralities_Consistent>
1

> <s_lp_Variant>
mol_ID_109-1

> <s_epik_Chemistry_Notes>
This compound contains an electron-poor aromatic ring that is susceptible to covalent hydrolysis at low pH, typically resulting in measured values for nitrogen ring protonation that are around two units higher than predicted values.

> <s_m_subgroup_title>
ligprep_SpotXplore-out1

> <s_m_subgroupid>
ligprep_SpotXplore-out1

> <b_m_subgroup_collapsed>
0

$$$$
mol_ID_110
                    3D
 Schrodinger Suite 2020-4.
 19 19  0  0  1  0            999 V2000
   -0.7992    1.1062    0.0000 C   0  0  0  0  0  0
    0.0029    0.0284    0.0000 C   0  0  0  0  0  0
    1.4752    0.0377   -0.0000 C   0  0  0  0  0  0
    2.1719   -1.1904   -0.0000 C   0  0  0  0  0  0
    3.5804   -1.1960   -0.0000 C   0  0  0  0  0  0
    4.2705    0.0317   -0.0000 C   0  0  0  0  0  0
    3.5866    1.2011    0.0000 N   0  3  0  0  0  0
    4.3515    2.4573    0.0000 C   0  0  0  0  0  0
    2.2298    1.2353    0.0000 C   0  0  0  0  0  0
   -0.4166    2.1153   -0.0000 H   0  0  0  0  0  0
   -1.8726    0.9867    0.0000 H   0  0  0  0  0  0
   -0.4658   -0.9455    0.0000 H   0  0  0  0  0  0
    1.6326   -2.1269   -0.0000 H   0  0  0  0  0  0
    4.1235   -2.1298   -0.0000 H   0  0  0  0  0  0
    5.3489    0.1041   -0.0000 H   0  0  0  0  0  0
    3.6758    3.3134    0.0000 H   0  0  0  0  0  0
    4.9747    2.4798   -0.8947 H   0  0  0  0  0  0
    4.9747    2.4798    0.8947 H   0  0  0  0  0  0
    1.7818    2.2177    0.0000 H   0  0  0  0  0  0
  1  2  2  0  0  0
  1 10  1  0  0  0
  1 11  1  0  0  0
  2  3  1  0  0  0
  2 12  1  0  0  0
  3  9  1  0  0  0
  3  4  2  0  0  0
  4  5  1  0  0  0
  4 13  1  0  0  0
  5  6  2  0  0  0
  5 14  1  0  0  0
  6  7  1  0  0  0
  6 15  1  0  0  0
  7  8  1  0  0  0
  7  9  2  0  0  0
  8 16  1  0  0  0
  8 17  1  0  0  0
  8 18  1  0  0  0
  9 19  1  0  0  0
M  CHG  1   7   1
M  END
> <s_m_entry_id>
985

> <s_m_entry_name>
Spot_Xplore.std.110

> <s_m_Source_Path>
/Volumes/cluster/ddu/2448959/Work/2023/01_Fragment_screening_lib/1_Library_Construction/Work/SpotX/Ph4_Hypo_JC2

> <s_m_Source_File>
SpotX.maegz

> <i_m_Source_File_Index>
119

> <s_m_job_name>
ligprep_SpotXplore

> <i_lp_mmshare_version>
52144

> <s_epik_input>
W0NIMl09W0NIXWMxW2NIXVtjSF1bY0hdW24rXShbQ0gzXSlbY0hdMQ==

> <s_epik_cmdline>
J2VwaWtfcHl0aG9uJywgJy1waHQnLCAnMS4wJywgJy1waCcsICc3LjAnLCAnLXRuJywgJzgnLCAnLW1hJywgJzIwMCcsICctaW1hZScsICc8aW5maWxlLm1hZT4nLCAnLW9tYWUnLCAnPG91dGZpbGUubWFlPic=

> <r_lp_tautomer_probability>
1

> <r_epik_Ionization_Penalty>
  0.0000

> <r_epik_Ionization_Penalty_Charging>
  0.0000

> <r_epik_Ionization_Penalty_Neutral>
  0.0000

> <r_epik_State_Penalty>
  0.0000

> <r_epik_Charging_Adjusted_Penalty>
0

> <i_epik_Tot_Q>
1

> <i_epik_Tot_abs_Q>
1

> <i_f3d_flags>
0

> <s_lp_Force_Field>
OPLS_2005

> <r_lp_Energy>
11.173885

> <b_lp_Chiralities_Consistent>
1

> <s_lp_Variant>
mol_ID_110-1

> <s_m_subgroup_title>
ligprep_SpotXplore-out1

> <s_m_subgroupid>
ligprep_SpotXplore-out1

> <b_m_subgroup_collapsed>
0

$$$$
mol_ID_111
                    3D
 Schrodinger Suite 2020-4.
 16 16  0  0  1  0            999 V2000
    0.0492   -0.0332    0.0000 C   0  0  0  0  0  0
    1.5093    0.0314   -0.0000 N   0  0  0  0  0  0
    2.2934    1.1580   -0.0000 C   0  0  0  0  0  0
    3.5808    0.6985   -0.0000 C   0  0  0  0  0  0
    5.3263    1.8516   -0.0000 I   0  0  0  0  0  0
    3.5538   -0.6684   -0.0000 N   0  3  0  0  0  0
    4.6873   -1.5930   -0.0000 C   0  0  0  0  0  0
    2.2756   -1.0720   -0.0000 C   0  0  0  0  0  0
   -0.3620    0.9769    0.0000 H   0  0  0  0  0  0
   -0.2875   -0.5625    0.8919 H   0  0  0  0  0  0
   -0.2875   -0.5625   -0.8919 H   0  0  0  0  0  0
    1.8901    2.1603   -0.0000 H   0  0  0  0  0  0
    4.3311   -2.6239   -0.0000 H   0  0  0  0  0  0
    5.2905   -1.4168    0.8910 H   0  0  0  0  0  0
    5.2905   -1.4168   -0.8910 H   0  0  0  0  0  0
    1.9267   -2.0895    0.0000 H   0  0  0  0  0  0
  1  2  1  0  0  0
  1  9  1  0  0  0
  1 10  1  0  0  0
  1 11  1  0  0  0
  2  8  1  0  0  0
  2  3  1  0  0  0
  3  4  2  0  0  0
  3 12  1  0  0  0
  4  5  1  0  0  0
  4  6  1  0  0  0
  6  7  1  0  0  0
  6  8  2  0  0  0
  7 13  1  0  0  0
  7 14  1  0  0  0
  7 15  1  0  0  0
  8 16  1  0  0  0
M  CHG  1   6   1
M  END
> <s_m_entry_id>
986

> <s_m_entry_name>
Spot_Xplore.std.111

> <s_m_Source_Path>
/Volumes/cluster/ddu/2448959/Work/2023/01_Fragment_screening_lib/1_Library_Construction/Work/SpotX/Ph4_Hypo_JC2

> <s_m_Source_File>
SpotX.maegz

> <i_m_Source_File_Index>
120

> <s_m_job_name>
ligprep_SpotXplore

> <i_lp_mmshare_version>
52144

> <s_epik_input>
W0NIM11uMVtjSF1jKEkpW24rXShbQ0gzXSlbY0hdMQ==

> <s_epik_cmdline>
J2VwaWtfcHl0aG9uJywgJy1waHQnLCAnMS4wJywgJy1waCcsICc3LjAnLCAnLXRuJywgJzgnLCAnLW1hJywgJzIwMCcsICctaW1hZScsICc8aW5maWxlLm1hZT4nLCAnLW9tYWUnLCAnPG91dGZpbGUubWFlPic=

> <r_lp_tautomer_probability>
1

> <r_epik_Ionization_Penalty>
  0.0000

> <r_epik_Ionization_Penalty_Charging>
  0.0000

> <r_epik_Ionization_Penalty_Neutral>
  0.0000

> <r_epik_State_Penalty>
  0.0000

> <r_epik_Charging_Adjusted_Penalty>
0

> <i_epik_Tot_Q>
1

> <i_epik_Tot_abs_Q>
1

> <i_f3d_flags>
0

> <s_lp_Force_Field>
OPLS_2005

> <r_lp_Energy>
4.645582

> <b_lp_Chiralities_Consistent>
1

> <s_lp_Variant>
mol_ID_111-1

> <s_m_subgroup_title>
ligprep_SpotXplore-out1

> <s_m_subgroupid>
ligprep_SpotXplore-out1

> <b_m_subgroup_collapsed>
0

$$$$
mol_ID_112
                    3D
 Schrodinger Suite 2020-4.
 19 19  0  0  1  0            999 V2000
   -0.7914    1.1178    0.0000 C   0  0  0  0  0  0
    0.0164    0.0442    0.0000 C   0  0  0  0  0  0
    1.4891    0.0590   -0.0000 C   0  0  0  0  0  0
    2.2427    1.2565   -0.0000 C   0  0  0  0  0  0
    3.6510    1.1931   -0.0000 C   0  0  0  0  0  0
    4.2865   -0.0031   -0.0000 N   0  3  0  0  0  0
    5.7569   -0.0165   -0.0000 C   0  0  0  0  0  0
    3.5984   -1.1713   -0.0000 C   0  0  0  0  0  0
    2.1888   -1.1675    0.0000 C   0  0  0  0  0  0
   -0.4150    2.1291   -0.0000 H   0  0  0  0  0  0
   -1.8641    0.9920    0.0000 H   0  0  0  0  0  0
   -0.4486   -0.9313    0.0000 H   0  0  0  0  0  0
    1.7626    2.2235   -0.0000 H   0  0  0  0  0  0
    4.2806    2.0715   -0.0000 H   0  0  0  0  0  0
    6.1258   -1.0429   -0.0000 H   0  0  0  0  0  0
    6.1052    0.5013    0.8945 H   0  0  0  0  0  0
    6.1052    0.5013   -0.8945 H   0  0  0  0  0  0
    4.1799   -2.0819    0.0000 H   0  0  0  0  0  0
    1.6509   -2.1047    0.0000 H   0  0  0  0  0  0
  1  2  2  0  0  0
  1 10  1  0  0  0
  1 11  1  0  0  0
  2  3  1  0  0  0
  2 12  1  0  0  0
  3  9  1  0  0  0
  3  4  2  0  0  0
  4  5  1  0  0  0
  4 13  1  0  0  0
  5  6  2  0  0  0
  5 14  1  0  0  0
  6  7  1  0  0  0
  6  8  1  0  0  0
  7 15  1  0  0  0
  7 16  1  0  0  0
  7 17  1  0  0  0
  8  9  2  0  0  0
  8 18  1  0  0  0
  9 19  1  0  0  0
M  CHG  1   6   1
M  END
> <s_m_entry_id>
987

> <s_m_entry_name>
Spot_Xplore.std.112

> <s_m_Source_Path>
/Volumes/cluster/ddu/2448959/Work/2023/01_Fragment_screening_lib/1_Library_Construction/Work/SpotX/Ph4_Hypo_JC2

> <s_m_Source_File>
SpotX.maegz

> <i_m_Source_File_Index>
121

> <s_m_job_name>
ligprep_SpotXplore

> <i_lp_mmshare_version>
52144

> <s_epik_input>
W0NIMl09W0NIXWMxW2NIXVtjSF1bbitdKFtDSDNdKVtjSF1bY0hdMQ==

> <s_epik_cmdline>
J2VwaWtfcHl0aG9uJywgJy1waHQnLCAnMS4wJywgJy1waCcsICc3LjAnLCAnLXRuJywgJzgnLCAnLW1hJywgJzIwMCcsICctaW1hZScsICc8aW5maWxlLm1hZT4nLCAnLW9tYWUnLCAnPG91dGZpbGUubWFlPic=

> <r_lp_tautomer_probability>
1

> <r_epik_Ionization_Penalty>
  0.0000

> <r_epik_Ionization_Penalty_Charging>
  0.0000

> <r_epik_Ionization_Penalty_Neutral>
  0.0000

> <r_epik_State_Penalty>
  0.0000

> <r_epik_Charging_Adjusted_Penalty>
0

> <i_epik_Tot_Q>
1

> <i_epik_Tot_abs_Q>
1

> <i_f3d_flags>
0

> <s_lp_Force_Field>
OPLS_2005

> <r_lp_Energy>
10.938111

> <b_lp_Chiralities_Consistent>
1

> <s_lp_Variant>
mol_ID_112-1

> <s_m_subgroup_title>
ligprep_SpotXplore-out1

> <s_m_subgroupid>
ligprep_SpotXplore-out1

> <b_m_subgroup_collapsed>
0

$$$$
mol_ID_113
                    3D
 Schrodinger Suite 2020-4.
 15 15  0  0  1  0            999 V2000
   -0.0222   -0.0089   -0.0000 C   0  0  0  0  0  0
    1.4474    0.0046   -0.0000 N   0  3  0  0  0  0
    2.1220    1.1810   -0.0000 C   0  0  0  0  0  0
    3.5320    1.1518   -0.0000 C   0  0  0  0  0  0
    4.2322   -0.0043   -0.0000 N   0  0  0  0  0  0
    3.5278   -1.1592   -0.0000 C   0  0  0  0  0  0
    4.2639   -2.4112   -0.0000 C   0  0  0  0  0  0
    4.8495   -3.4089    0.0000 N   0  0  0  0  0  0
    2.1154   -1.1745   -0.0000 C   0  0  0  0  0  0
   -0.4078    1.0112    0.0000 H   0  0  0  0  0  0
   -0.3611   -0.5326    0.8948 H   0  0  0  0  0  0
   -0.3611   -0.5326   -0.8948 H   0  0  0  0  0  0
    1.5404    2.0916   -0.0000 H   0  0  0  0  0  0
    4.1047    2.0675   -0.0000 H   0  0  0  0  0  0
    1.5161   -2.0745    0.0000 H   0  0  0  0  0  0
  1  2  1  0  0  0
  1 10  1  0  0  0
  1 11  1  0  0  0
  1 12  1  0  0  0
  2  9  1  0  0  0
  2  3  2  0  0  0
  3  4  1  0  0  0
  3 13  1  0  0  0
  4  5  2  0  0  0
  4 14  1  0  0  0
  5  6  1  0  0  0
  6  7  1  0  0  0
  6  9  2  0  0  0
  7  8  3  0  0  0
  9 15  1  0  0  0
M  CHG  1   2   1
M  END
> <s_m_entry_id>
988

> <s_m_entry_name>
Spot_Xplore.std.113

> <s_m_Source_Path>
/Volumes/cluster/ddu/2448959/Work/2023/01_Fragment_screening_lib/1_Library_Construction/Work/SpotX/Ph4_Hypo_JC2

> <s_m_Source_File>
SpotX.maegz

> <i_m_Source_File_Index>
122

> <s_m_job_name>
ligprep_SpotXplore

> <i_lp_mmshare_version>
52144

> <s_epik_input>
W0NIM11bbitdMVtjSF1bY0hdbmMoQyNOKVtjSF0x

> <s_epik_cmdline>
J2VwaWtfcHl0aG9uJywgJy1waHQnLCAnMS4wJywgJy1waCcsICc3LjAnLCAnLXRuJywgJzgnLCAnLW1hJywgJzIwMCcsICctaW1hZScsICc8aW5maWxlLm1hZT4nLCAnLW9tYWUnLCAnPG91dGZpbGUubWFlPic=

> <r_lp_tautomer_probability>
1

> <r_epik_Ionization_Penalty>
  0.0000

> <r_epik_Ionization_Penalty_Charging>
  0.0000

> <r_epik_Ionization_Penalty_Neutral>
  0.0000

> <r_epik_State_Penalty>
  0.0000

> <r_epik_Charging_Adjusted_Penalty>
0

> <i_epik_Tot_Q>
1

> <i_epik_Tot_abs_Q>
1

> <i_f3d_flags>
0

> <s_lp_Force_Field>
OPLS_2005

> <r_lp_Energy>
8.059861

> <b_lp_Chiralities_Consistent>
1

> <s_lp_Variant>
mol_ID_113-1

> <s_m_subgroup_title>
ligprep_SpotXplore-out1

> <s_m_subgroupid>
ligprep_SpotXplore-out1

> <b_m_subgroup_collapsed>
0

$$$$
mol_ID_114
                    3D
 Schrodinger Suite 2020-4.
 17 17  0  0  1  0            999 V2000
   -1.2060    0.1696    0.0013 C   0  0  0  0  0  0
    0.0108    0.0652   -0.0004 C   0  0  0  0  0  0
    1.4666   -0.0428   -0.0001 C   0  0  0  0  0  0
    2.2337    1.1441    0.0000 C   0  0  0  0  0  0
    3.6393    1.0718    0.0001 C   0  0  0  0  0  0
    4.2587   -0.1905    0.0000 C   0  0  0  0  0  0
    3.4553   -1.3472    0.0001 C   0  0  0  0  0  0
    2.0988   -1.2571   -0.0001 N   0  3  0  0  0  0
    1.3226   -2.5188    0.0000 C   0  0  0  0  0  0
   -2.2690    0.2642    0.0009 H   0  0  0  0  0  0
    1.7502    2.1110    0.0001 H   0  0  0  0  0  0
    4.2340    1.9738   -0.0000 H   0  0  0  0  0  0
    5.3361   -0.2717   -0.0003 H   0  0  0  0  0  0
    3.8810   -2.3400   -0.0000 H   0  0  0  0  0  0
    1.9914   -3.3800   -0.0000 H   0  0  0  0  0  0
    0.7021   -2.5470   -0.8965 H   0  0  0  0  0  0
    0.7021   -2.5471    0.8967 H   0  0  0  0  0  0
  1  2  3  0  0  0
  1 10  1  0  0  0
  2  3  1  0  0  0
  3  8  1  0  0  0
  3  4  2  0  0  0
  4  5  1  0  0  0
  4 11  1  0  0  0
  5  6  2  0  0  0
  5 12  1  0  0  0
  6  7  1  0  0  0
  6 13  1  0  0  0
  7  8  2  0  0  0
  7 14  1  0  0  0
  8  9  1  0  0  0
  9 15  1  0  0  0
  9 16  1  0  0  0
  9 17  1  0  0  0
M  CHG  1   8   1
M  END
> <s_m_entry_id>
989

> <s_m_entry_name>
Spot_Xplore.std.114

> <s_m_Source_Path>
/Volumes/cluster/ddu/2448959/Work/2023/01_Fragment_screening_lib/1_Library_Construction/Work/SpotX/Ph4_Hypo_JC2

> <s_m_Source_File>
SpotX.maegz

> <i_m_Source_File_Index>
123

> <s_m_job_name>
ligprep_SpotXplore

> <i_lp_mmshare_version>
52144

> <s_epik_input>
W0NIXSNDYzFbY0hdW2NIXVtjSF1bY0hdW24rXTFbQ0gzXQ==

> <s_epik_cmdline>
J2VwaWtfcHl0aG9uJywgJy1waHQnLCAnMS4wJywgJy1waCcsICc3LjAnLCAnLXRuJywgJzgnLCAnLW1hJywgJzIwMCcsICctaW1hZScsICc8aW5maWxlLm1hZT4nLCAnLW9tYWUnLCAnPG91dGZpbGUubWFlPic=

> <r_lp_tautomer_probability>
1

> <r_epik_Ionization_Penalty>
  0.0000

> <r_epik_Ionization_Penalty_Charging>
  0.0000

> <r_epik_Ionization_Penalty_Neutral>
  0.0000

> <r_epik_State_Penalty>
  0.0000

> <r_epik_Charging_Adjusted_Penalty>
0

> <i_epik_Tot_Q>
1

> <i_epik_Tot_abs_Q>
1

> <i_f3d_flags>
0

> <s_lp_Force_Field>
OPLS_2005

> <r_lp_Energy>
12.271725

> <b_lp_Chiralities_Consistent>
1

> <s_lp_Variant>
mol_ID_114-1

> <s_m_subgroup_title>
ligprep_SpotXplore-out1

> <s_m_subgroupid>
ligprep_SpotXplore-out1

> <b_m_subgroup_collapsed>
0

$$$$
mol_ID_115
                    3D
 Schrodinger Suite 2020-4.
 16 16  0  0  1  0            999 V2000
   -1.1860    0.1671    0.0009 C   0  0  0  0  0  0
    0.0315    0.0689    0.0005 C   0  0  0  0  0  0
    1.4728   -0.0423    0.0002 C   0  0  0  0  0  0
    2.1504    1.1140    0.0001 N   0  0  0  0  0  0
    3.4961    1.0998   -0.0000 C   0  0  0  0  0  0
    4.2106   -0.1060   -0.0001 C   0  0  0  0  0  0
    3.4504   -1.2890   -0.0000 C   0  0  0  0  0  0
    2.0882   -1.2518    0.0001 N   0  3  0  0  0  0
    1.3344   -2.5252    0.0000 C   0  0  0  0  0  0
   -2.2498    0.2505    0.0006 H   0  0  0  0  0  0
    4.0021    2.0539   -0.0001 H   0  0  0  0  0  0
    5.2908   -0.1246   -0.0002 H   0  0  0  0  0  0
    3.9090   -2.2674   -0.0001 H   0  0  0  0  0  0
    2.0232   -3.3707   -0.0000 H   0  0  0  0  0  0
    0.7146   -2.5646   -0.8968 H   0  0  0  0  0  0
    0.7147   -2.5647    0.8968 H   0  0  0  0  0  0
  1  2  3  0  0  0
  1 10  1  0  0  0
  2  3  1  0  0  0
  3  8  1  0  0  0
  3  4  2  0  0  0
  4  5  1  0  0  0
  5  6  2  0  0  0
  5 11  1  0  0  0
  6  7  1  0  0  0
  6 12  1  0  0  0
  7  8  2  0  0  0
  7 13  1  0  0  0
  8  9  1  0  0  0
  9 14  1  0  0  0
  9 15  1  0  0  0
  9 16  1  0  0  0
M  CHG  1   8   1
M  END
> <s_m_entry_id>
990

> <s_m_entry_name>
Spot_Xplore.std.115

> <s_m_Source_Path>
/Volumes/cluster/ddu/2448959/Work/2023/01_Fragment_screening_lib/1_Library_Construction/Work/SpotX/Ph4_Hypo_JC2

> <s_m_Source_File>
SpotX.maegz

> <i_m_Source_File_Index>
124

> <s_m_job_name>
ligprep_SpotXplore

> <i_lp_mmshare_version>
52144

> <s_epik_input>
W0NIXSNDYzFuW2NIXVtjSF1bY0hdW24rXTFbQ0gzXQ==

> <s_epik_cmdline>
J2VwaWtfcHl0aG9uJywgJy1waHQnLCAnMS4wJywgJy1waCcsICc3LjAnLCAnLXRuJywgJzgnLCAnLW1hJywgJzIwMCcsICctaW1hZScsICc8aW5maWxlLm1hZT4nLCAnLW9tYWUnLCAnPG91dGZpbGUubWFlPic=

> <r_lp_tautomer_probability>
1

> <r_epik_Ionization_Penalty>
  0.0000

> <r_epik_Ionization_Penalty_Charging>
  0.0000

> <r_epik_Ionization_Penalty_Neutral>
  0.0000

> <r_epik_State_Penalty>
  0.0000

> <r_epik_Charging_Adjusted_Penalty>
0

> <i_epik_Tot_Q>
1

> <i_epik_Tot_abs_Q>
1

> <i_f3d_flags>
0

> <s_lp_Force_Field>
OPLS_2005

> <r_lp_Energy>
7.351463

> <b_lp_Chiralities_Consistent>
1

> <s_lp_Variant>
mol_ID_115-1

> <s_epik_Chemistry_Notes>
This compound contains an electron-poor aromatic ring that is susceptible to covalent hydrolysis at low pH, typically resulting in measured values for nitrogen ring protonation that are around two units higher than predicted values.

> <s_m_subgroup_title>
ligprep_SpotXplore-out1

> <s_m_subgroupid>
ligprep_SpotXplore-out1

> <b_m_subgroup_collapsed>
0

$$$$
mol_ID_116
                    3D
 Schrodinger Suite 2020-4.
 15 15  0  0  1  0            999 V2000
   -0.0274   -0.0050    0.0000 C   0  0  0  0  0  0
    1.4430    0.0130   -0.0000 N   0  3  0  0  0  0
    2.1055    1.1977   -0.0000 C   0  0  0  0  0  0
    3.5154    1.2263   -0.0000 C   0  0  0  0  0  0
    4.2273    0.0104   -0.0000 C   0  0  0  0  0  0
    3.5120   -1.2034   -0.0000 C   0  0  0  0  0  0
    4.5273   -3.0309   -0.0000 I   0  0  0  0  0  0
    2.1028   -1.1713   -0.0000 C   0  0  0  0  0  0
   -0.4180    1.0133    0.0000 H   0  0  0  0  0  0
   -0.3648   -0.5296    0.8947 H   0  0  0  0  0  0
   -0.3648   -0.5296   -0.8947 H   0  0  0  0  0  0
    1.5035    2.0948   -0.0000 H   0  0  0  0  0  0
    4.0441    2.1685   -0.0000 H   0  0  0  0  0  0
    5.3076    0.0098   -0.0000 H   0  0  0  0  0  0
    1.4910   -2.0621    0.0000 H   0  0  0  0  0  0
  1  2  1  0  0  0
  1  9  1  0  0  0
  1 10  1  0  0  0
  1 11  1  0  0  0
  2  8  1  0  0  0
  2  3  2  0  0  0
  3  4  1  0  0  0
  3 12  1  0  0  0
  4  5  2  0  0  0
  4 13  1  0  0  0
  5  6  1  0  0  0
  5 14  1  0  0  0
  6  7  1  0  0  0
  6  8  2  0  0  0
  8 15  1  0  0  0
M  CHG  1   2   1
M  END
> <s_m_entry_id>
991

> <s_m_entry_name>
Spot_Xplore.std.116

> <s_m_Source_Path>
/Volumes/cluster/ddu/2448959/Work/2023/01_Fragment_screening_lib/1_Library_Construction/Work/SpotX/Ph4_Hypo_JC2

> <s_m_Source_File>
SpotX.maegz

> <i_m_Source_File_Index>
125

> <s_m_job_name>
ligprep_SpotXplore

> <i_lp_mmshare_version>
52144

> <s_epik_input>
W0NIM11bbitdMVtjSF1bY0hdW2NIXWMoSSlbY0hdMQ==

> <s_epik_cmdline>
J2VwaWtfcHl0aG9uJywgJy1waHQnLCAnMS4wJywgJy1waCcsICc3LjAnLCAnLXRuJywgJzgnLCAnLW1hJywgJzIwMCcsICctaW1hZScsICc8aW5maWxlLm1hZT4nLCAnLW9tYWUnLCAnPG91dGZpbGUubWFlPic=

> <r_lp_tautomer_probability>
1

> <r_epik_Ionization_Penalty>
  0.0000

> <r_epik_Ionization_Penalty_Charging>
  0.0000

> <r_epik_Ionization_Penalty_Neutral>
  0.0000

> <r_epik_State_Penalty>
  0.0000

> <r_epik_Charging_Adjusted_Penalty>
0

> <i_epik_Tot_Q>
1

> <i_epik_Tot_abs_Q>
1

> <i_f3d_flags>
0

> <s_lp_Force_Field>
OPLS_2005

> <r_lp_Energy>
8.684248

> <b_lp_Chiralities_Consistent>
1

> <s_lp_Variant>
mol_ID_116-1

> <s_m_subgroup_title>
ligprep_SpotXplore-out1

> <s_m_subgroupid>
ligprep_SpotXplore-out1

> <b_m_subgroup_collapsed>
0

$$$$
mol_ID_117
                    3D
 Schrodinger Suite 2020-4.
 15 15  0  0  1  0            999 V2000
   -0.0274   -0.0026    0.0000 C   0  0  0  0  0  0
    1.4417    0.0098   -0.0000 N   0  3  0  0  0  0
    2.1280    1.1688   -0.0000 C   0  0  0  0  0  0
    3.4660    1.2300   -0.0000 N   0  0  0  0  0  0
    4.1758    0.0841   -0.0000 C   0  0  0  0  0  0
    3.5376   -1.1671   -0.0000 C   0  0  0  0  0  0
    4.2940   -2.4065    0.0000 C   0  0  0  0  0  0
    4.8965   -3.3937    0.0000 N   0  0  0  0  0  0
    2.1297   -1.1634    0.0000 C   0  0  0  0  0  0
   -0.4101    1.0188    0.0000 H   0  0  0  0  0  0
   -0.3670   -0.5256    0.8947 H   0  0  0  0  0  0
   -0.3670   -0.5256   -0.8947 H   0  0  0  0  0  0
    1.5570    2.0861   -0.0000 H   0  0  0  0  0  0
    5.2530    0.1726   -0.0000 H   0  0  0  0  0  0
    1.5318   -2.0643    0.0000 H   0  0  0  0  0  0
  1  2  1  0  0  0
  1 10  1  0  0  0
  1 11  1  0  0  0
  1 12  1  0  0  0
  2  9  1  0  0  0
  2  3  2  0  0  0
  3  4  1  0  0  0
  3 13  1  0  0  0
  4  5  2  0  0  0
  5  6  1  0  0  0
  5 14  1  0  0  0
  6  7  1  0  0  0
  6  9  2  0  0  0
  7  8  3  0  0  0
  9 15  1  0  0  0
M  CHG  1   2   1
M  END
> <s_m_entry_id>
992

> <s_m_entry_name>
Spot_Xplore.std.117

> <s_m_Source_Path>
/Volumes/cluster/ddu/2448959/Work/2023/01_Fragment_screening_lib/1_Library_Construction/Work/SpotX/Ph4_Hypo_JC2

> <s_m_Source_File>
SpotX.maegz

> <i_m_Source_File_Index>
126

> <s_m_job_name>
ligprep_SpotXplore

> <i_lp_mmshare_version>
52144

> <s_epik_input>
W0NIM11bbitdMVtjSF1uW2NIXWMoQyNOKVtjSF0x

> <s_epik_cmdline>
J2VwaWtfcHl0aG9uJywgJy1waHQnLCAnMS4wJywgJy1waCcsICc3LjAnLCAnLXRuJywgJzgnLCAnLW1hJywgJzIwMCcsICctaW1hZScsICc8aW5maWxlLm1hZT4nLCAnLW9tYWUnLCAnPG91dGZpbGUubWFlPic=

> <r_lp_tautomer_probability>
1

> <r_epik_Ionization_Penalty>
  0.0000

> <r_epik_Ionization_Penalty_Charging>
  0.0000

> <r_epik_Ionization_Penalty_Neutral>
  0.0000

> <r_epik_State_Penalty>
  0.0000

> <r_epik_Charging_Adjusted_Penalty>
0

> <i_epik_Tot_Q>
1

> <i_epik_Tot_abs_Q>
1

> <i_f3d_flags>
0

> <s_lp_Force_Field>
OPLS_2005

> <r_lp_Energy>
5.5508

> <b_lp_Chiralities_Consistent>
1

> <s_lp_Variant>
mol_ID_117-1

> <s_epik_Chemistry_Notes>
This compound contains an electron-poor aromatic ring that is susceptible to covalent hydrolysis at low pH, typically resulting in measured values for nitrogen ring protonation that are around two units higher than predicted values.

> <s_m_subgroup_title>
ligprep_SpotXplore-out1

> <s_m_subgroupid>
ligprep_SpotXplore-out1

> <b_m_subgroup_collapsed>
0

$$$$
mol_ID_118
                    3D
 Schrodinger Suite 2020-4.
 17 17  0  0  1  0            999 V2000
    0.0614   -0.0263   -0.0000 C   0  0  0  0  0  0
    1.5216    0.0315    0.0000 N   0  0  0  0  0  0
    2.3110    1.1540    0.0000 C   0  0  0  0  0  0
    3.5975    0.6896    0.0000 C   0  0  0  0  0  0
    4.8006    1.5062    0.0000 C   0  0  0  0  0  0
    5.7577    2.1556    0.0000 N   0  0  0  0  0  0
    3.5633   -0.6799    0.0000 N   0  3  0  0  0  0
    4.6857   -1.6217    0.0000 C   0  0  0  0  0  0
    2.2821   -1.0756    0.0000 C   0  0  0  0  0  0
   -0.3456    0.9854   -0.0000 H   0  0  0  0  0  0
   -0.2777   -0.5541    0.8920 H   0  0  0  0  0  0
   -0.2777   -0.5541   -0.8920 H   0  0  0  0  0  0
    1.9108    2.1578    0.0000 H   0  0  0  0  0  0
    4.3155   -2.6476    0.0000 H   0  0  0  0  0  0
    5.2916   -1.4553    0.8911 H   0  0  0  0  0  0
    5.2916   -1.4553   -0.8911 H   0  0  0  0  0  0
    1.9271   -2.0913   -0.0000 H   0  0  0  0  0  0
  1  2  1  0  0  0
  1 10  1  0  0  0
  1 11  1  0  0  0
  1 12  1  0  0  0
  2  9  1  0  0  0
  2  3  1  0  0  0
  3  4  2  0  0  0
  3 13  1  0  0  0
  4  5  1  0  0  0
  4  7  1  0  0  0
  5  6  3  0  0  0
  7  8  1  0  0  0
  7  9  2  0  0  0
  8 14  1  0  0  0
  8 15  1  0  0  0
  8 16  1  0  0  0
  9 17  1  0  0  0
M  CHG  1   7   1
M  END
> <s_m_entry_id>
993

> <s_m_entry_name>
Spot_Xplore.std.118

> <s_m_Source_Path>
/Volumes/cluster/ddu/2448959/Work/2023/01_Fragment_screening_lib/1_Library_Construction/Work/SpotX/Ph4_Hypo_JC2

> <s_m_Source_File>
SpotX.maegz

> <i_m_Source_File_Index>
127

> <s_m_job_name>
ligprep_SpotXplore

> <i_lp_mmshare_version>
52144

> <s_epik_input>
W0NIM11uMVtjSF1jKEMjTilbbitdKFtDSDNdKVtjSF0x

> <s_epik_cmdline>
J2VwaWtfcHl0aG9uJywgJy1waHQnLCAnMS4wJywgJy1waCcsICc3LjAnLCAnLXRuJywgJzgnLCAnLW1hJywgJzIwMCcsICctaW1hZScsICc8aW5maWxlLm1hZT4nLCAnLW9tYWUnLCAnPG91dGZpbGUubWFlPic=

> <r_lp_tautomer_probability>
1

> <r_epik_Ionization_Penalty>
  0.0000

> <r_epik_Ionization_Penalty_Charging>
  0.0000

> <r_epik_Ionization_Penalty_Neutral>
  0.0000

> <r_epik_State_Penalty>
  0.0000

> <r_epik_Charging_Adjusted_Penalty>
0

> <i_epik_Tot_Q>
1

> <i_epik_Tot_abs_Q>
1

> <i_f3d_flags>
0

> <s_lp_Force_Field>
OPLS_2005

> <r_lp_Energy>
5.145197

> <b_lp_Chiralities_Consistent>
1

> <s_lp_Variant>
mol_ID_118-1

> <s_m_subgroup_title>
ligprep_SpotXplore-out1

> <s_m_subgroupid>
ligprep_SpotXplore-out1

> <b_m_subgroup_collapsed>
0

$$$$
mol_ID_119
                    3D
 Schrodinger Suite 2020-4.
 12 12  0  0  1  0            999 V2000
    0.0430   -0.0141    0.0000 C   0  0  0  0  0  0
    1.5059   -0.0084    0.0000 N   0  3  0  0  0  0
    2.2813    1.1271    0.0000 C   0  0  0  0  0  0
    3.5854    0.6936    0.0000 C   0  0  0  0  0  0
    3.6229   -0.6858    0.0000 O   0  0  0  0  0  0
    2.3165   -1.0679   -0.0000 C   0  0  0  0  0  0
    1.6829   -3.0624   -0.0000 I   0  0  0  0  0  0
   -0.3331    1.0096   -0.0000 H   0  0  0  0  0  0
   -0.3129   -0.5313    0.8915 H   0  0  0  0  0  0
   -0.3129   -0.5313   -0.8915 H   0  0  0  0  0  0
    1.8394    2.1132    0.0000 H   0  0  0  0  0  0
    4.5398    1.1999    0.0000 H   0  0  0  0  0  0
  1  2  1  0  0  0
  1  8  1  0  0  0
  1  9  1  0  0  0
  1 10  1  0  0  0
  2  6  2  0  0  0
  2  3  1  0  0  0
  3  4  2  0  0  0
  3 11  1  0  0  0
  4  5  1  0  0  0
  4 12  1  0  0  0
  5  6  1  0  0  0
  6  7  1  0  0  0
M  CHG  1   2   1
M  END
> <s_m_entry_id>
994

> <s_m_entry_name>
Spot_Xplore.std.119

> <s_m_Source_Path>
/Volumes/cluster/ddu/2448959/Work/2023/01_Fragment_screening_lib/1_Library_Construction/Work/SpotX/Ph4_Hypo_JC2

> <s_m_Source_File>
SpotX.maegz

> <i_m_Source_File_Index>
128

> <s_m_job_name>
ligprep_SpotXplore

> <i_lp_mmshare_version>
52144

> <s_epik_input>
W0NIM11bbitdMVtjSF1bY0hdb2MxSQ==

> <s_epik_cmdline>
J2VwaWtfcHl0aG9uJywgJy1waHQnLCAnMS4wJywgJy1waCcsICc3LjAnLCAnLXRuJywgJzgnLCAnLW1hJywgJzIwMCcsICctaW1hZScsICc8aW5maWxlLm1hZT4nLCAnLW9tYWUnLCAnPG91dGZpbGUubWFlPic=

> <r_lp_tautomer_probability>
1

> <r_epik_Ionization_Penalty>
  0.0000

> <r_epik_Ionization_Penalty_Charging>
  0.0000

> <r_epik_Ionization_Penalty_Neutral>
  0.0000

> <r_epik_State_Penalty>
  0.0000

> <r_epik_Charging_Adjusted_Penalty>
0

> <i_epik_Tot_Q>
1

> <i_epik_Tot_abs_Q>
1

> <i_f3d_flags>
0

> <s_lp_Force_Field>
OPLS_2005

> <r_lp_Energy>
9.046909

> <b_lp_Chiralities_Consistent>
1

> <s_lp_Variant>
mol_ID_119-1

> <s_m_subgroup_title>
ligprep_SpotXplore-out1

> <s_m_subgroupid>
ligprep_SpotXplore-out1

> <b_m_subgroup_collapsed>
0

$$$$
mol_ID_120
                    3D
 Schrodinger Suite 2020-4.
 17 17  0  0  1  0            999 V2000
   -1.2018    0.0081   -0.0001 C   0  0  0  0  0  0
    0.0193    0.0036    0.0013 C   0  0  0  0  0  0
    1.4724    0.0034    0.0001 C   0  0  0  0  0  0
    2.1884    1.2187   -0.0001 C   0  0  0  0  0  0
    3.5979    1.1849   -0.0002 C   0  0  0  0  0  0
    4.2579    0.0006   -0.0001 N   0  3  0  0  0  0
    5.7283    0.0183   -0.0000 C   0  0  0  0  0  0
    3.5958   -1.1839   -0.0002 C   0  0  0  0  0  0
    2.1860   -1.2133   -0.0001 C   0  0  0  0  0  0
   -2.2690    0.0087    0.0011 H   0  0  0  0  0  0
    1.6696    2.1669    0.0001 H   0  0  0  0  0  0
    4.2099    2.0754   -0.0000 H   0  0  0  0  0  0
    6.1189   -0.9999   -0.0000 H   0  0  0  0  0  0
    6.0660    0.5430    0.8947 H   0  0  0  0  0  0
    6.0660    0.5430   -0.8947 H   0  0  0  0  0  0
    4.1982   -2.0807   -0.0000 H   0  0  0  0  0  0
    1.6647   -2.1602    0.0001 H   0  0  0  0  0  0
  1  2  3  0  0  0
  1 10  1  0  0  0
  2  3  1  0  0  0
  3  9  1  0  0  0
  3  4  2  0  0  0
  4  5  1  0  0  0
  4 11  1  0  0  0
  5  6  2  0  0  0
  5 12  1  0  0  0
  6  7  1  0  0  0
  6  8  1  0  0  0
  7 13  1  0  0  0
  7 14  1  0  0  0
  7 15  1  0  0  0
  8  9  2  0  0  0
  8 16  1  0  0  0
  9 17  1  0  0  0
M  CHG  1   6   1
M  END
> <s_m_entry_id>
995

> <s_m_entry_name>
Spot_Xplore.std.120

> <s_m_Source_Path>
/Volumes/cluster/ddu/2448959/Work/2023/01_Fragment_screening_lib/1_Library_Construction/Work/SpotX/Ph4_Hypo_JC2

> <s_m_Source_File>
SpotX.maegz

> <i_m_Source_File_Index>
129

> <s_m_job_name>
ligprep_SpotXplore

> <i_lp_mmshare_version>
52144

> <s_epik_input>
W0NIXSNDYzFbY0hdW2NIXVtuK10oW0NIM10pW2NIXVtjSF0x

> <s_epik_cmdline>
J2VwaWtfcHl0aG9uJywgJy1waHQnLCAnMS4wJywgJy1waCcsICc3LjAnLCAnLXRuJywgJzgnLCAnLW1hJywgJzIwMCcsICctaW1hZScsICc8aW5maWxlLm1hZT4nLCAnLW9tYWUnLCAnPG91dGZpbGUubWFlPic=

> <r_lp_tautomer_probability>
1

> <r_epik_Ionization_Penalty>
  0.0000

> <r_epik_Ionization_Penalty_Charging>
  0.0000

> <r_epik_Ionization_Penalty_Neutral>
  0.0000

> <r_epik_State_Penalty>
  0.0000

> <r_epik_Charging_Adjusted_Penalty>
0

> <i_epik_Tot_Q>
1

> <i_epik_Tot_abs_Q>
1

> <i_f3d_flags>
0

> <s_lp_Force_Field>
OPLS_2005

> <r_lp_Energy>
8.733779

> <b_lp_Chiralities_Consistent>
1

> <s_lp_Variant>
mol_ID_120-1

> <s_m_subgroup_title>
ligprep_SpotXplore-out1

> <s_m_subgroupid>
ligprep_SpotXplore-out1

> <b_m_subgroup_collapsed>
0

$$$$
mol_ID_121
                    3D
 Schrodinger Suite 2020-4.
 14 14  0  0  1  0            999 V2000
    0.0020    0.0071   -0.0000 C   0  0  0  0  0  0
    1.4756    0.0092    0.0000 N   0  3  0  0  0  0
    2.1510    1.1918    0.0000 C   0  0  0  0  0  0
    3.5560    1.2209    0.0000 C   0  0  0  0  0  0
    4.2068   -0.0199    0.0000 C   0  0  0  0  0  0
    3.5115   -1.1722    0.0000 N   0  0  0  0  0  0
    2.1709   -1.1510   -0.0000 C   0  0  0  0  0  0
    1.3621   -2.6800   -0.0000 Cl  0  0  0  0  0  0
   -0.3754    1.0304   -0.0000 H   0  0  0  0  0  0
   -0.3445   -0.5086    0.8964 H   0  0  0  0  0  0
   -0.3445   -0.5086   -0.8964 H   0  0  0  0  0  0
    1.5534    2.0918    0.0000 H   0  0  0  0  0  0
    4.1059    2.1507    0.0000 H   0  0  0  0  0  0
    5.2846   -0.0906    0.0000 H   0  0  0  0  0  0
  1  2  1  0  0  0
  1  9  1  0  0  0
  1 10  1  0  0  0
  1 11  1  0  0  0
  2  7  1  0  0  0
  2  3  2  0  0  0
  3  4  1  0  0  0
  3 12  1  0  0  0
  4  5  2  0  0  0
  4 13  1  0  0  0
  5  6  1  0  0  0
  5 14  1  0  0  0
  6  7  2  0  0  0
  7  8  1  0  0  0
M  CHG  1   2   1
M  END
> <s_m_entry_id>
996

> <s_m_entry_name>
Spot_Xplore.std.121

> <s_m_Source_Path>
/Volumes/cluster/ddu/2448959/Work/2023/01_Fragment_screening_lib/1_Library_Construction/Work/SpotX/Ph4_Hypo_JC2

> <s_m_Source_File>
SpotX.maegz

> <i_m_Source_File_Index>
130

> <s_m_job_name>
ligprep_SpotXplore

> <i_lp_mmshare_version>
52144

> <s_epik_input>
W0NIM11bbitdMVtjSF1bY0hdW2NIXW5jMUNs

> <s_epik_cmdline>
J2VwaWtfcHl0aG9uJywgJy1waHQnLCAnMS4wJywgJy1waCcsICc3LjAnLCAnLXRuJywgJzgnLCAnLW1hJywgJzIwMCcsICctaW1hZScsICc8aW5maWxlLm1hZT4nLCAnLW9tYWUnLCAnPG91dGZpbGUubWFlPic=

> <r_lp_tautomer_probability>
1

> <r_epik_Ionization_Penalty>
  0.0000

> <r_epik_Ionization_Penalty_Charging>
  0.0000

> <r_epik_Ionization_Penalty_Neutral>
  0.0000

> <r_epik_State_Penalty>
  0.0000

> <r_epik_Charging_Adjusted_Penalty>
0

> <i_epik_Tot_Q>
1

> <i_epik_Tot_abs_Q>
1

> <i_f3d_flags>
0

> <s_lp_Force_Field>
OPLS_2005

> <r_lp_Energy>
5.234725

> <b_lp_Chiralities_Consistent>
1

> <s_lp_Variant>
mol_ID_121-1

> <s_epik_Chemistry_Notes>
This compound contains an electron-poor aromatic ring that is susceptible to covalent hydrolysis at low pH, typically resulting in measured values for nitrogen ring protonation that are around two units higher than predicted values.

> <s_m_subgroup_title>
ligprep_SpotXplore-out1

> <s_m_subgroupid>
ligprep_SpotXplore-out1

> <b_m_subgroup_collapsed>
0

$$$$
mol_ID_122
                    3D
 Schrodinger Suite 2020-4.
 14 14  0  0  1  0            999 V2000
    0.0038   -0.0051   -0.0000 C   0  0  0  0  0  0
    1.4734    0.0098    0.0000 N   0  3  0  0  0  0
    2.1473    1.1863    0.0000 C   0  0  0  0  0  0
    3.5572    1.1566    0.0000 C   0  0  0  0  0  0
    4.2573    0.0008    0.0000 N   0  0  0  0  0  0
    3.5544   -1.1544    0.0000 C   0  0  0  0  0  0
    4.4108   -2.6515    0.0000 Cl  0  0  0  0  0  0
    2.1428   -1.1684    0.0000 C   0  0  0  0  0  0
   -0.3825    1.0149   -0.0000 H   0  0  0  0  0  0
   -0.3351   -0.5288    0.8948 H   0  0  0  0  0  0
   -0.3351   -0.5288   -0.8948 H   0  0  0  0  0  0
    1.5657    2.0970    0.0000 H   0  0  0  0  0  0
    4.1300    2.0723    0.0000 H   0  0  0  0  0  0
    1.5472   -2.0706   -0.0000 H   0  0  0  0  0  0
  1  2  1  0  0  0
  1  9  1  0  0  0
  1 10  1  0  0  0
  1 11  1  0  0  0
  2  8  1  0  0  0
  2  3  2  0  0  0
  3  4  1  0  0  0
  3 12  1  0  0  0
  4  5  2  0  0  0
  4 13  1  0  0  0
  5  6  1  0  0  0
  6  7  1  0  0  0
  6  8  2  0  0  0
  8 14  1  0  0  0
M  CHG  1   2   1
M  END
> <s_m_entry_id>
997

> <s_m_entry_name>
Spot_Xplore.std.122

> <s_m_Source_Path>
/Volumes/cluster/ddu/2448959/Work/2023/01_Fragment_screening_lib/1_Library_Construction/Work/SpotX/Ph4_Hypo_JC2

> <s_m_Source_File>
SpotX.maegz

> <i_m_Source_File_Index>
131

> <s_m_job_name>
ligprep_SpotXplore

> <i_lp_mmshare_version>
52144

> <s_epik_input>
W0NIM11bbitdMVtjSF1bY0hdbmMoQ2wpW2NIXTE=

> <s_epik_cmdline>
J2VwaWtfcHl0aG9uJywgJy1waHQnLCAnMS4wJywgJy1waCcsICc3LjAnLCAnLXRuJywgJzgnLCAnLW1hJywgJzIwMCcsICctaW1hZScsICc8aW5maWxlLm1hZT4nLCAnLW9tYWUnLCAnPG91dGZpbGUubWFlPic=

> <r_lp_tautomer_probability>
1

> <r_epik_Ionization_Penalty>
  0.0000

> <r_epik_Ionization_Penalty_Charging>
  0.0000

> <r_epik_Ionization_Penalty_Neutral>
  0.0000

> <r_epik_State_Penalty>
  0.0000

> <r_epik_Charging_Adjusted_Penalty>
0

> <i_epik_Tot_Q>
1

> <i_epik_Tot_abs_Q>
1

> <i_f3d_flags>
0

> <s_lp_Force_Field>
OPLS_2005

> <r_lp_Energy>
7.212096

> <b_lp_Chiralities_Consistent>
1

> <s_lp_Variant>
mol_ID_122-1

> <s_m_subgroup_title>
ligprep_SpotXplore-out1

> <s_m_subgroupid>
ligprep_SpotXplore-out1

> <b_m_subgroup_collapsed>
0

$$$$
mol_ID_123
                    3D
 Schrodinger Suite 2020-4.
 14 14  0  0  1  0            999 V2000
   -0.0291   -0.0013    0.0000 C   0  0  0  0  0  0
    1.4400    0.0138    0.0000 N   0  3  0  0  0  0
    2.1247    1.1739    0.0000 C   0  0  0  0  0  0
    3.4628    1.2373    0.0000 N   0  0  0  0  0  0
    4.1740    0.0924    0.0000 C   0  0  0  0  0  0
    3.5372   -1.1588    0.0000 C   0  0  0  0  0  0
    4.4374   -2.6300   -0.0000 Cl  0  0  0  0  0  0
    2.1300   -1.1582   -0.0000 C   0  0  0  0  0  0
   -0.4136    1.0194   -0.0000 H   0  0  0  0  0  0
   -0.3676   -0.5248    0.8949 H   0  0  0  0  0  0
   -0.3676   -0.5248   -0.8949 H   0  0  0  0  0  0
    1.5528    2.0907    0.0000 H   0  0  0  0  0  0
    5.2510    0.1772    0.0000 H   0  0  0  0  0  0
    1.5373   -2.0619   -0.0000 H   0  0  0  0  0  0
  1  2  1  0  0  0
  1  9  1  0  0  0
  1 10  1  0  0  0
  1 11  1  0  0  0
  2  8  1  0  0  0
  2  3  2  0  0  0
  3  4  1  0  0  0
  3 12  1  0  0  0
  4  5  2  0  0  0
  5  6  1  0  0  0
  5 13  1  0  0  0
  6  7  1  0  0  0
  6  8  2  0  0  0
  8 14  1  0  0  0
M  CHG  1   2   1
M  END
> <s_m_entry_id>
998

> <s_m_entry_name>
Spot_Xplore.std.123

> <s_m_Source_Path>
/Volumes/cluster/ddu/2448959/Work/2023/01_Fragment_screening_lib/1_Library_Construction/Work/SpotX/Ph4_Hypo_JC2

> <s_m_Source_File>
SpotX.maegz

> <i_m_Source_File_Index>
132

> <s_m_job_name>
ligprep_SpotXplore

> <i_lp_mmshare_version>
52144

> <s_epik_input>
W0NIM11bbitdMVtjSF1uW2NIXWMoQ2wpW2NIXTE=

> <s_epik_cmdline>
J2VwaWtfcHl0aG9uJywgJy1waHQnLCAnMS4wJywgJy1waCcsICc3LjAnLCAnLXRuJywgJzgnLCAnLW1hJywgJzIwMCcsICctaW1hZScsICc8aW5maWxlLm1hZT4nLCAnLW9tYWUnLCAnPG91dGZpbGUubWFlPic=

> <r_lp_tautomer_probability>
1

> <r_epik_Ionization_Penalty>
  0.0000

> <r_epik_Ionization_Penalty_Charging>
  0.0000

> <r_epik_Ionization_Penalty_Neutral>
  0.0000

> <r_epik_State_Penalty>
  0.0000

> <r_epik_Charging_Adjusted_Penalty>
0

> <i_epik_Tot_Q>
1

> <i_epik_Tot_abs_Q>
1

> <i_f3d_flags>
0

> <s_lp_Force_Field>
OPLS_2005

> <r_lp_Energy>
7.117925

> <b_lp_Chiralities_Consistent>
1

> <s_lp_Variant>
mol_ID_123-1

> <s_epik_Chemistry_Notes>
This compound contains an electron-poor aromatic ring that is susceptible to covalent hydrolysis at low pH, typically resulting in measured values for nitrogen ring protonation that are around two units higher than predicted values.

> <s_m_subgroup_title>
ligprep_SpotXplore-out1

> <s_m_subgroupid>
ligprep_SpotXplore-out1

> <b_m_subgroup_collapsed>
0

$$$$
mol_ID_124
                    3D
 Schrodinger Suite 2020-4.
 16 16  0  0  1  0            999 V2000
    0.0038    0.0112   -0.0000 C   0  0  0  0  0  0
    1.4705    0.0229   -0.0000 N   0  0  0  0  0  0
    2.3123    1.0966    0.0000 C   0  0  0  0  0  0
    3.5805    0.5263    0.0000 C   0  0  0  0  0  0
    5.1964    1.5296    0.0000 Br  0  0  0  0  0  0
    3.5290   -0.8632    0.0000 C   0  0  0  0  0  0
    2.1934   -1.1415   -0.0000 N   0  3  0  0  0  0
    1.5324   -2.4508   -0.0000 C   0  0  0  0  0  0
   -0.3644    1.0376   -0.0000 H   0  0  0  0  0  0
   -0.3583   -0.4968    0.8942 H   0  0  0  0  0  0
   -0.3583   -0.4968   -0.8942 H   0  0  0  0  0  0
    1.9681    2.1206    0.0000 H   0  0  0  0  0  0
    4.2940   -1.6260    0.0000 H   0  0  0  0  0  0
    2.2890   -3.2360   -0.0000 H   0  0  0  0  0  0
    0.9165   -2.5501   -0.8942 H   0  0  0  0  0  0
    0.9165   -2.5501    0.8942 H   0  0  0  0  0  0
  1  2  1  0  0  0
  1  9  1  0  0  0
  1 10  1  0  0  0
  1 11  1  0  0  0
  2  7  1  0  0  0
  2  3  1  0  0  0
  3  4  2  0  0  0
  3 12  1  0  0  0
  4  5  1  0  0  0
  4  6  1  0  0  0
  6  7  2  0  0  0
  6 13  1  0  0  0
  7  8  1  0  0  0
  8 14  1  0  0  0
  8 15  1  0  0  0
  8 16  1  0  0  0
M  CHG  1   7   1
M  END
> <s_m_entry_id>
999

> <s_m_entry_name>
Spot_Xplore.std.124

> <s_m_Source_Path>
/Volumes/cluster/ddu/2448959/Work/2023/01_Fragment_screening_lib/1_Library_Construction/Work/SpotX/Ph4_Hypo_JC2

> <s_m_Source_File>
SpotX.maegz

> <i_m_Source_File_Index>
133

> <s_m_job_name>
ligprep_SpotXplore

> <i_lp_mmshare_version>
52144

> <s_epik_input>
W0NIM11uMVtjSF1jKEJyKVtjSF1bbitdMVtDSDNd

> <s_epik_cmdline>
J2VwaWtfcHl0aG9uJywgJy1waHQnLCAnMS4wJywgJy1waCcsICc3LjAnLCAnLXRuJywgJzgnLCAnLW1hJywgJzIwMCcsICctaW1hZScsICc8aW5maWxlLm1hZT4nLCAnLW9tYWUnLCAnPG91dGZpbGUubWFlPic=

> <r_lp_tautomer_probability>
1

> <r_epik_Ionization_Penalty>
  0.0000

> <r_epik_Ionization_Penalty_Charging>
  0.0000

> <r_epik_Ionization_Penalty_Neutral>
  0.0000

> <r_epik_State_Penalty>
  0.0000

> <r_epik_Charging_Adjusted_Penalty>
0

> <i_epik_Tot_Q>
1

> <i_epik_Tot_abs_Q>
1

> <i_f3d_flags>
0

> <s_lp_Force_Field>
OPLS_2005

> <r_lp_Energy>
11.690789

> <b_lp_Chiralities_Consistent>
1

> <s_lp_Variant>
mol_ID_124-1

> <s_m_subgroup_title>
ligprep_SpotXplore-out1

> <s_m_subgroupid>
ligprep_SpotXplore-out1

> <b_m_subgroup_collapsed>
0

$$$$
mol_ID_125
                    3D
 Schrodinger Suite 2020-4.
 18 18  0  0  1  0            999 V2000
   -1.0946    0.0057    0.0009 C   0  0  0  0  0  0
    0.1265   -0.0019   -0.0004 C   0  0  0  0  0  0
    1.5468   -0.0007   -0.0001 C   0  0  0  0  0  0
    2.3251    1.1526   -0.0000 C   0  0  0  0  0  0
    3.6072    0.6855    0.0000 N   0  0  0  0  0  0
    4.8590    1.4499    0.0000 C   0  0  0  0  0  0
    3.6079   -0.6845    0.0000 N   0  3  0  0  0  0
    4.8605   -1.4478    0.0000 C   0  0  0  0  0  0
    2.3264   -1.1531   -0.0000 C   0  0  0  0  0  0
   -2.1618    0.0092    0.0014 H   0  0  0  0  0  0
    2.0794    2.2048   -0.0000 H   0  0  0  0  0  0
    4.6297    2.5158   -0.0000 H   0  0  0  0  0  0
    5.4348    1.2098   -0.8943 H   0  0  0  0  0  0
    5.4349    1.2098    0.8943 H   0  0  0  0  0  0
    4.6319   -2.5139    0.0000 H   0  0  0  0  0  0
    5.4360   -1.2072    0.8943 H   0  0  0  0  0  0
    5.4360   -1.2072   -0.8943 H   0  0  0  0  0  0
    2.0819   -2.2055   -0.0000 H   0  0  0  0  0  0
  1  2  3  0  0  0
  1 10  1  0  0  0
  2  3  1  0  0  0
  3  9  1  0  0  0
  3  4  2  0  0  0
  4  5  1  0  0  0
  4 11  1  0  0  0
  5  6  1  0  0  0
  5  7  1  0  0  0
  6 12  1  0  0  0
  6 13  1  0  0  0
  6 14  1  0  0  0
  7  8  1  0  0  0
  7  9  2  0  0  0
  8 15  1  0  0  0
  8 16  1  0  0  0
  8 17  1  0  0  0
  9 18  1  0  0  0
M  CHG  1   7   1
M  END
> <s_m_entry_id>
1000

> <s_m_entry_name>
Spot_Xplore.std.125

> <s_m_Source_Path>
/Volumes/cluster/ddu/2448959/Work/2023/01_Fragment_screening_lib/1_Library_Construction/Work/SpotX/Ph4_Hypo_JC2

> <s_m_Source_File>
SpotX.maegz

> <i_m_Source_File_Index>
134

> <s_m_job_name>
ligprep_SpotXplore

> <i_lp_mmshare_version>
52144

> <s_epik_input>
W0NIXSNDYzFbY0hdbihbQ0gzXSlbbitdKFtDSDNdKVtjSF0x

> <s_epik_cmdline>
J2VwaWtfcHl0aG9uJywgJy1waHQnLCAnMS4wJywgJy1waCcsICc3LjAnLCAnLXRuJywgJzgnLCAnLW1hJywgJzIwMCcsICctaW1hZScsICc8aW5maWxlLm1hZT4nLCAnLW9tYWUnLCAnPG91dGZpbGUubWFlPic=

> <r_lp_tautomer_probability>
1

> <r_epik_Ionization_Penalty>
  0.0000

> <r_epik_Ionization_Penalty_Charging>
  0.0000

> <r_epik_Ionization_Penalty_Neutral>
  0.0000

> <r_epik_State_Penalty>
  0.0000

> <r_epik_Charging_Adjusted_Penalty>
0

> <i_epik_Tot_Q>
1

> <i_epik_Tot_abs_Q>
1

> <i_f3d_flags>
0

> <s_lp_Force_Field>
OPLS_2005

> <r_lp_Energy>
11.749507

> <b_lp_Chiralities_Consistent>
1

> <s_lp_Variant>
mol_ID_125-1

> <s_m_subgroup_title>
ligprep_SpotXplore-out1

> <s_m_subgroupid>
ligprep_SpotXplore-out1

> <b_m_subgroup_collapsed>
0

$$$$
mol_ID_126
                    3D
 Schrodinger Suite 2020-4.
 18 18  0  0  1  0            999 V2000
   -0.7469    1.1248    0.0000 C   0  0  0  0  0  0
    0.0512    0.0437    0.0000 C   0  0  0  0  0  0
    1.5225    0.0617    0.0000 C   0  0  0  0  0  0
    2.2330   -1.1599    0.0000 C   0  0  0  0  0  0
    3.5878   -1.1381   -0.0000 N   0  3  0  0  0  0
    4.3213   -2.4116   -0.0000 C   0  0  0  0  0  0
    4.2600    0.0389   -0.0000 C   0  0  0  0  0  0
    3.5191    1.2380   -0.0000 C   0  0  0  0  0  0
    2.1681    1.2535   -0.0000 N   0  0  0  0  0  0
   -0.3497    2.1296   -0.0000 H   0  0  0  0  0  0
   -1.8214    1.0147    0.0000 H   0  0  0  0  0  0
   -0.4149   -0.9312    0.0000 H   0  0  0  0  0  0
    1.7629   -2.1333    0.0000 H   0  0  0  0  0  0
    5.3961   -2.2257    0.0000 H   0  0  0  0  0  0
    4.0423   -2.9692   -0.8948 H   0  0  0  0  0  0
    4.0423   -2.9692    0.8948 H   0  0  0  0  0  0
    5.3398   -0.0008   -0.0000 H   0  0  0  0  0  0
    4.0166    2.1967   -0.0000 H   0  0  0  0  0  0
  1  2  2  0  0  0
  1 10  1  0  0  0
  1 11  1  0  0  0
  2  3  1  0  0  0
  2 12  1  0  0  0
  3  9  1  0  0  0
  3  4  2  0  0  0
  4  5  1  0  0  0
  4 13  1  0  0  0
  5  6  1  0  0  0
  5  7  2  0  0  0
  6 14  1  0  0  0
  6 15  1  0  0  0
  6 16  1  0  0  0
  7  8  1  0  0  0
  7 17  1  0  0  0
  8  9  2  0  0  0
  8 18  1  0  0  0
M  CHG  1   5   1
M  END
> <s_m_entry_id>
1001

> <s_m_entry_name>
Spot_Xplore.std.126

> <s_m_Source_Path>
/Volumes/cluster/ddu/2448959/Work/2023/01_Fragment_screening_lib/1_Library_Construction/Work/SpotX/Ph4_Hypo_JC2

> <s_m_Source_File>
SpotX.maegz

> <i_m_Source_File_Index>
135

> <s_m_job_name>
ligprep_SpotXplore

> <i_lp_mmshare_version>
52144

> <s_epik_input>
W0NIMl09W0NIXWMxW2NIXVtuK10oW0NIM10pW2NIXVtjSF1uMQ==

> <s_epik_cmdline>
J2VwaWtfcHl0aG9uJywgJy1waHQnLCAnMS4wJywgJy1waCcsICc3LjAnLCAnLXRuJywgJzgnLCAnLW1hJywgJzIwMCcsICctaW1hZScsICc8aW5maWxlLm1hZT4nLCAnLW9tYWUnLCAnPG91dGZpbGUubWFlPic=

> <r_lp_tautomer_probability>
1

> <r_epik_Ionization_Penalty>
  0.0000

> <r_epik_Ionization_Penalty_Charging>
  0.0000

> <r_epik_Ionization_Penalty_Neutral>
  0.0000

> <r_epik_State_Penalty>
  0.0000

> <r_epik_Charging_Adjusted_Penalty>
0

> <i_epik_Tot_Q>
1

> <i_epik_Tot_abs_Q>
1

> <i_f3d_flags>
0

> <s_lp_Force_Field>
OPLS_2005

> <r_lp_Energy>
9.410104

> <b_lp_Chiralities_Consistent>
1

> <s_lp_Variant>
mol_ID_126-1

> <s_m_subgroup_title>
ligprep_SpotXplore-out1

> <s_m_subgroupid>
ligprep_SpotXplore-out1

> <b_m_subgroup_collapsed>
0

$$$$
mol_ID_127
                    3D
 Schrodinger Suite 2020-4.
 18 18  0  0  1  0            999 V2000
   -0.0230    0.0159    0.0000 C   0  0  0  0  0  0
    1.4684    0.0181    0.0000 C   0  0  0  0  0  0
    2.1060   -1.1925   -0.0000 O   0  0  0  0  0  0
    3.5327   -0.9396    0.0000 N   0  3  0  0  0  0
    4.5604   -1.9778    0.0000 C   0  0  0  0  0  0
    3.7105    0.4391    0.0000 C   0  0  0  0  0  0
    5.0078    1.1921    0.0000 C   0  0  0  0  0  0
    2.4120    1.0049    0.0000 C   0  0  0  0  0  0
    1.9800    3.0540    0.0000 I   0  0  0  0  0  0
   -0.4205    1.0307   -0.0000 H   0  0  0  0  0  0
   -0.4078   -0.4956    0.8823 H   0  0  0  0  0  0
   -0.4078   -0.4956   -0.8823 H   0  0  0  0  0  0
    5.5525   -1.5264    0.0000 H   0  0  0  0  0  0
    4.4393   -2.5944   -0.8907 H   0  0  0  0  0  0
    4.4393   -2.5944    0.8907 H   0  0  0  0  0  0
    4.8592    2.2712    0.0000 H   0  0  0  0  0  0
    5.6024    0.9457   -0.8798 H   0  0  0  0  0  0
    5.6024    0.9457    0.8798 H   0  0  0  0  0  0
  1  2  1  0  0  0
  1 10  1  0  0  0
  1 11  1  0  0  0
  1 12  1  0  0  0
  2  8  2  0  0  0
  2  3  1  0  0  0
  3  4  1  0  0  0
  4  5  1  0  0  0
  4  6  2  0  0  0
  5 13  1  0  0  0
  5 14  1  0  0  0
  5 15  1  0  0  0
  6  7  1  0  0  0
  6  8  1  0  0  0
  7 16  1  0  0  0
  7 17  1  0  0  0
  7 18  1  0  0  0
  8  9  1  0  0  0
M  CHG  1   4   1
M  END
> <s_m_entry_id>
1002

> <s_m_entry_name>
Spot_Xplore.std.127

> <s_m_Source_Path>
/Volumes/cluster/ddu/2448959/Work/2023/01_Fragment_screening_lib/1_Library_Construction/Work/SpotX/Ph4_Hypo_JC2

> <s_m_Source_File>
SpotX.maegz

> <i_m_Source_File_Index>
136

> <s_m_job_name>
ligprep_SpotXplore

> <i_lp_mmshare_version>
52144

> <s_epik_input>
W0NIM11jMW9bbitdKFtDSDNdKWMoW0NIM10pYzFJ

> <s_epik_cmdline>
J2VwaWtfcHl0aG9uJywgJy1waHQnLCAnMS4wJywgJy1waCcsICc3LjAnLCAnLXRuJywgJzgnLCAnLW1hJywgJzIwMCcsICctaW1hZScsICc8aW5maWxlLm1hZT4nLCAnLW9tYWUnLCAnPG91dGZpbGUubWFlPic=

> <r_lp_tautomer_probability>
1

> <r_epik_Ionization_Penalty>
  0.0000

> <r_epik_Ionization_Penalty_Charging>
  0.0000

> <r_epik_Ionization_Penalty_Neutral>
  0.0000

> <r_epik_State_Penalty>
  0.0000

> <r_epik_Charging_Adjusted_Penalty>
0

> <i_epik_Tot_Q>
1

> <i_epik_Tot_abs_Q>
1

> <i_f3d_flags>
0

> <s_lp_Force_Field>
OPLS_2005

> <r_lp_Energy>
3.664235

> <b_lp_Chiralities_Consistent>
1

> <s_lp_Variant>
mol_ID_127-1

> <s_m_subgroup_title>
ligprep_SpotXplore-out1

> <s_m_subgroupid>
ligprep_SpotXplore-out1

> <b_m_subgroup_collapsed>
0

$$$$
mol_ID_128
                    3D
 Schrodinger Suite 2020-4.
 18 18  0  0  1  0            999 V2000
   -0.9514    2.5485    0.0173 C   0  0  0  0  0  0
   -0.5032    1.4127    0.0231 C   0  0  0  0  0  0
    0.0505    0.0484    0.0332 C   0  0  0  0  0  0
    1.5139    0.0183   -0.0236 N   0  0  0  0  0  0
    2.3020   -0.0032   -1.1459 C   0  0  0  0  0  0
    3.6019   -0.0197   -0.7102 C   0  0  0  0  0  0
    3.5548   -0.0068    0.6592 N   0  3  0  0  0  0
    4.6909   -0.0149    1.5794 C   0  0  0  0  0  0
    2.2819    0.0176    1.0740 C   0  0  0  0  0  0
   -1.3475    3.5395    0.0115 H   0  0  0  0  0  0
   -0.2803   -0.4651    0.9369 H   0  0  0  0  0  0
   -0.3400   -0.4987   -0.8256 H   0  0  0  0  0  0
    1.8900   -0.0035   -2.1447 H   0  0  0  0  0  0
    4.5327   -0.0379   -1.2586 H   0  0  0  0  0  0
    4.3396   -0.0183    2.6121 H   0  0  0  0  0  0
    5.2965    0.8747    1.4043 H   0  0  0  0  0  0
    5.2905   -0.9071    1.3968 H   0  0  0  0  0  0
    1.9394    0.0355    2.0936 H   0  0  0  0  0  0
  1  2  3  0  0  0
  1 10  1  0  0  0
  2  3  1  0  0  0
  3  4  1  0  0  0
  3 11  1  0  0  0
  3 12  1  0  0  0
  4  9  1  0  0  0
  4  5  1  0  0  0
  5  6  2  0  0  0
  5 13  1  0  0  0
  6  7  1  0  0  0
  6 14  1  0  0  0
  7  8  1  0  0  0
  7  9  2  0  0  0
  8 15  1  0  0  0
  8 16  1  0  0  0
  8 17  1  0  0  0
  9 18  1  0  0  0
M  CHG  1   7   1
M  END
> <s_m_entry_id>
1003

> <s_m_entry_name>
Spot_Xplore.std.128

> <s_m_Source_Path>
/Volumes/cluster/ddu/2448959/Work/2023/01_Fragment_screening_lib/1_Library_Construction/Work/SpotX/Ph4_Hypo_JC2

> <s_m_Source_File>
SpotX.maegz

> <i_m_Source_File_Index>
137

> <s_m_job_name>
ligprep_SpotXplore

> <i_lp_mmshare_version>
52144

> <s_epik_input>
W0NIXSNDW0NIMl1uMVtjSF1bY0hdW24rXShbQ0gzXSlbY0hdMQ==

> <s_epik_cmdline>
J2VwaWtfcHl0aG9uJywgJy1waHQnLCAnMS4wJywgJy1waCcsICc3LjAnLCAnLXRuJywgJzgnLCAnLW1hJywgJzIwMCcsICctaW1hZScsICc8aW5maWxlLm1hZT4nLCAnLW9tYWUnLCAnPG91dGZpbGUubWFlPic=

> <r_lp_tautomer_probability>
1

> <r_epik_Ionization_Penalty>
  0.0000

> <r_epik_Ionization_Penalty_Charging>
  0.0000

> <r_epik_Ionization_Penalty_Neutral>
  0.0000

> <r_epik_State_Penalty>
  0.0000

> <r_epik_Charging_Adjusted_Penalty>
0

> <i_epik_Tot_Q>
1

> <i_epik_Tot_abs_Q>
1

> <i_f3d_flags>
0

> <s_lp_Force_Field>
OPLS_2005

> <r_lp_Energy>
5.18346

> <b_lp_Chiralities_Consistent>
1

> <s_lp_Variant>
mol_ID_128-1

> <s_m_subgroup_title>
ligprep_SpotXplore-out1

> <s_m_subgroupid>
ligprep_SpotXplore-out1

> <b_m_subgroup_collapsed>
0

$$$$
mol_ID_129
                    3D
 Schrodinger Suite 2020-4.
 13 13  0  0  1  0            999 V2000
   -0.0295    0.0121   -0.0000 C   0  0  0  0  0  0
    1.4385   -0.0004   -0.0000 N   0  3  0  0  0  0
    2.2301    1.1467   -0.0000 C   0  0  0  0  0  0
    3.5749    0.8634   -0.0000 C   0  0  0  0  0  0
    3.8783   -0.8537   -0.0000 S   0  0  0  0  0  0
    2.1691   -1.1285    0.0000 C   0  0  0  0  0  0
    1.6404   -2.4844    0.0000 C   0  0  0  0  0  0
    1.2195   -3.5618    0.0000 N   0  0  0  0  0  0
   -0.3905    1.0411   -0.0000 H   0  0  0  0  0  0
   -0.3965   -0.4959    0.8926 H   0  0  0  0  0  0
   -0.3965   -0.4959   -0.8926 H   0  0  0  0  0  0
    1.7435    2.1117   -0.0000 H   0  0  0  0  0  0
    4.4023    1.5580   -0.0000 H   0  0  0  0  0  0
  1  2  1  0  0  0
  1  9  1  0  0  0
  1 10  1  0  0  0
  1 11  1  0  0  0
  2  6  2  0  0  0
  2  3  1  0  0  0
  3  4  2  0  0  0
  3 12  1  0  0  0
  4  5  1  0  0  0
  4 13  1  0  0  0
  5  6  1  0  0  0
  6  7  1  0  0  0
  7  8  3  0  0  0
M  CHG  1   2   1
M  END
> <s_m_entry_id>
1004

> <s_m_entry_name>
Spot_Xplore.std.129

> <s_m_Source_Path>
/Volumes/cluster/ddu/2448959/Work/2023/01_Fragment_screening_lib/1_Library_Construction/Work/SpotX/Ph4_Hypo_JC2

> <s_m_Source_File>
SpotX.maegz

> <i_m_Source_File_Index>
138

> <s_m_job_name>
ligprep_SpotXplore

> <i_lp_mmshare_version>
52144

> <s_epik_input>
W0NIM11bbitdMVtjSF1bY0hdc2MxQyNO

> <s_epik_cmdline>
J2VwaWtfcHl0aG9uJywgJy1waHQnLCAnMS4wJywgJy1waCcsICc3LjAnLCAnLXRuJywgJzgnLCAnLW1hJywgJzIwMCcsICctaW1hZScsICc8aW5maWxlLm1hZT4nLCAnLW9tYWUnLCAnPG91dGZpbGUubWFlPic=

> <r_lp_tautomer_probability>
1

> <r_epik_Ionization_Penalty>
  0.0000

> <r_epik_Ionization_Penalty_Charging>
  0.0000

> <r_epik_Ionization_Penalty_Neutral>
  0.0000

> <r_epik_State_Penalty>
  0.0000

> <r_epik_Charging_Adjusted_Penalty>
0

> <i_epik_Tot_Q>
1

> <i_epik_Tot_abs_Q>
1

> <i_f3d_flags>
0

> <s_lp_Force_Field>
OPLS_2005

> <r_lp_Energy>
5.317779

> <b_lp_Chiralities_Consistent>
1

> <s_lp_Variant>
mol_ID_129-1

> <s_m_subgroup_title>
ligprep_SpotXplore-out1

> <s_m_subgroupid>
ligprep_SpotXplore-out1

> <b_m_subgroup_collapsed>
0

$$$$
mol_ID_130
                    3D
 Schrodinger Suite 2020-4.
 12 12  0  0  1  0            999 V2000
    0.0502   -0.0212   -0.0000 C   0  0  0  0  0  0
    1.5123    0.0336   -0.0000 N   0  3  0  0  0  0
    2.1758    1.2048   -0.0000 C   0  0  0  0  0  0
    3.9039    0.9809   -0.0000 S   0  0  0  0  0  0
    3.6513   -0.7339   -0.0000 C   0  0  0  0  0  0
    5.0982   -1.9688    0.0000 Br  0  0  0  0  0  0
    2.3321   -1.0913    0.0000 C   0  0  0  0  0  0
   -0.3681    0.9863    0.0000 H   0  0  0  0  0  0
   -0.2863   -0.5528    0.8906 H   0  0  0  0  0  0
   -0.2863   -0.5528   -0.8906 H   0  0  0  0  0  0
    1.7048    2.1715   -0.0000 H   0  0  0  0  0  0
    1.8817   -2.0733    0.0000 H   0  0  0  0  0  0
  1  2  1  0  0  0
  1  8  1  0  0  0
  1  9  1  0  0  0
  1 10  1  0  0  0
  2  7  1  0  0  0
  2  3  2  0  0  0
  3  4  1  0  0  0
  3 11  1  0  0  0
  4  5  1  0  0  0
  5  6  1  0  0  0
  5  7  2  0  0  0
  7 12  1  0  0  0
M  CHG  1   2   1
M  END
> <s_m_entry_id>
1005

> <s_m_entry_name>
Spot_Xplore.std.130

> <s_m_Source_Path>
/Volumes/cluster/ddu/2448959/Work/2023/01_Fragment_screening_lib/1_Library_Construction/Work/SpotX/Ph4_Hypo_JC2

> <s_m_Source_File>
SpotX.maegz

> <i_m_Source_File_Index>
139

> <s_m_job_name>
ligprep_SpotXplore

> <i_lp_mmshare_version>
52144

> <s_epik_input>
W0NIM11bbitdMVtjSF1zYyhCcilbY0hdMQ==

> <s_epik_cmdline>
J2VwaWtfcHl0aG9uJywgJy1waHQnLCAnMS4wJywgJy1waCcsICc3LjAnLCAnLXRuJywgJzgnLCAnLW1hJywgJzIwMCcsICctaW1hZScsICc8aW5maWxlLm1hZT4nLCAnLW9tYWUnLCAnPG91dGZpbGUubWFlPic=

> <r_lp_tautomer_probability>
1

> <r_epik_Ionization_Penalty>
  0.0000

> <r_epik_Ionization_Penalty_Charging>
  0.0000

> <r_epik_Ionization_Penalty_Neutral>
  0.0000

> <r_epik_State_Penalty>
  0.0000

> <r_epik_Charging_Adjusted_Penalty>
0

> <i_epik_Tot_Q>
1

> <i_epik_Tot_abs_Q>
1

> <i_f3d_flags>
0

> <s_lp_Force_Field>
OPLS_2005

> <r_lp_Energy>
2.94891

> <b_lp_Chiralities_Consistent>
1

> <s_lp_Variant>
mol_ID_130-1

> <s_m_subgroup_title>
ligprep_SpotXplore-out1

> <s_m_subgroupid>
ligprep_SpotXplore-out1

> <b_m_subgroup_collapsed>
0

$$$$
mol_ID_131
                    3D
 Schrodinger Suite 2020-4.
 16 16  0  0  1  0            999 V2000
    0.0054    0.0127    0.0000 C   0  0  0  0  0  0
    1.4720    0.0239   -0.0000 N   0  0  0  0  0  0
    2.3142    1.0972   -0.0000 C   0  0  0  0  0  0
    3.5823    0.5264   -0.0000 C   0  0  0  0  0  0
    5.0256    1.4216   -0.0000 Cl  0  0  0  0  0  0
    3.5301   -0.8631   -0.0000 C   0  0  0  0  0  0
    2.1944   -1.1407   -0.0000 N   0  3  0  0  0  0
    1.5327   -2.4497    0.0000 C   0  0  0  0  0  0
   -0.3622    1.0393    0.0000 H   0  0  0  0  0  0
   -0.3569   -0.4952    0.8941 H   0  0  0  0  0  0
   -0.3569   -0.4952   -0.8941 H   0  0  0  0  0  0
    1.9699    2.1211   -0.0000 H   0  0  0  0  0  0
    4.2943   -1.6267   -0.0000 H   0  0  0  0  0  0
    2.2892   -3.2351    0.0000 H   0  0  0  0  0  0
    0.9167   -2.5486   -0.8942 H   0  0  0  0  0  0
    0.9167   -2.5486    0.8942 H   0  0  0  0  0  0
  1  2  1  0  0  0
  1  9  1  0  0  0
  1 10  1  0  0  0
  1 11  1  0  0  0
  2  7  1  0  0  0
  2  3  1  0  0  0
  3  4  2  0  0  0
  3 12  1  0  0  0
  4  5  1  0  0  0
  4  6  1  0  0  0
  6  7  2  0  0  0
  6 13  1  0  0  0
  7  8  1  0  0  0
  8 14  1  0  0  0
  8 15  1  0  0  0
  8 16  1  0  0  0
M  CHG  1   7   1
M  END
> <s_m_entry_id>
1006

> <s_m_entry_name>
Spot_Xplore.std.131

> <s_m_Source_Path>
/Volumes/cluster/ddu/2448959/Work/2023/01_Fragment_screening_lib/1_Library_Construction/Work/SpotX/Ph4_Hypo_JC2

> <s_m_Source_File>
SpotX.maegz

> <i_m_Source_File_Index>
140

> <s_m_job_name>
ligprep_SpotXplore

> <i_lp_mmshare_version>
52144

> <s_epik_input>
W0NIM11uMVtjSF1jKENsKVtjSF1bbitdMVtDSDNd

> <s_epik_cmdline>
J2VwaWtfcHl0aG9uJywgJy1waHQnLCAnMS4wJywgJy1waCcsICc3LjAnLCAnLXRuJywgJzgnLCAnLW1hJywgJzIwMCcsICctaW1hZScsICc8aW5maWxlLm1hZT4nLCAnLW9tYWUnLCAnPG91dGZpbGUubWFlPic=

> <r_lp_tautomer_probability>
1

> <r_epik_Ionization_Penalty>
  0.0000

> <r_epik_Ionization_Penalty_Charging>
  0.0000

> <r_epik_Ionization_Penalty_Neutral>
  0.0000

> <r_epik_State_Penalty>
  0.0000

> <r_epik_Charging_Adjusted_Penalty>
0

> <i_epik_Tot_Q>
1

> <i_epik_Tot_abs_Q>
1

> <i_f3d_flags>
0

> <s_lp_Force_Field>
OPLS_2005

> <r_lp_Energy>
11.764098

> <b_lp_Chiralities_Consistent>
1

> <s_lp_Variant>
mol_ID_131-1

> <s_m_subgroup_title>
ligprep_SpotXplore-out1

> <s_m_subgroupid>
ligprep_SpotXplore-out1

> <b_m_subgroup_collapsed>
0

$$$$
mol_ID_132
                    3D
 Schrodinger Suite 2020-4.
 17 17  0  0  1  0            999 V2000
    0.0156    0.0190   -0.0000 C   0  0  0  0  0  0
    1.4824    0.0266   -0.0000 N   0  0  0  0  0  0
    2.3276    1.0979   -0.0000 C   0  0  0  0  0  0
    3.5957    0.5255   -0.0000 C   0  0  0  0  0  0
    4.8043    1.2706   -0.0000 C   0  0  0  0  0  0
    5.7893    1.8767   -0.0000 N   0  0  0  0  0  0
    3.5384   -0.8646   -0.0000 C   0  0  0  0  0  0
    2.2019   -1.1395   -0.0000 N   0  3  0  0  0  0
    1.5374   -2.4470    0.0000 C   0  0  0  0  0  0
   -0.3496    1.0464   -0.0000 H   0  0  0  0  0  0
   -0.3481   -0.4879    0.8942 H   0  0  0  0  0  0
   -0.3481   -0.4879   -0.8942 H   0  0  0  0  0  0
    1.9843    2.1226   -0.0000 H   0  0  0  0  0  0
    4.2999   -1.6311   -0.0000 H   0  0  0  0  0  0
    2.2924   -3.2337    0.0000 H   0  0  0  0  0  0
    0.9214   -2.5450   -0.8942 H   0  0  0  0  0  0
    0.9214   -2.5450    0.8942 H   0  0  0  0  0  0
  1  2  1  0  0  0
  1 10  1  0  0  0
  1 11  1  0  0  0
  1 12  1  0  0  0
  2  8  1  0  0  0
  2  3  1  0  0  0
  3  4  2  0  0  0
  3 13  1  0  0  0
  4  5  1  0  0  0
  4  7  1  0  0  0
  5  6  3  0  0  0
  7  8  2  0  0  0
  7 14  1  0  0  0
  8  9  1  0  0  0
  9 15  1  0  0  0
  9 16  1  0  0  0
  9 17  1  0  0  0
M  CHG  1   8   1
M  END
> <s_m_entry_id>
1007

> <s_m_entry_name>
Spot_Xplore.std.132

> <s_m_Source_Path>
/Volumes/cluster/ddu/2448959/Work/2023/01_Fragment_screening_lib/1_Library_Construction/Work/SpotX/Ph4_Hypo_JC2

> <s_m_Source_File>
SpotX.maegz

> <i_m_Source_File_Index>
141

> <s_m_job_name>
ligprep_SpotXplore

> <i_lp_mmshare_version>
52144

> <s_epik_input>
W0NIM11uMVtjSF1jKEMjTilbY0hdW24rXTFbQ0gzXQ==

> <s_epik_cmdline>
J2VwaWtfcHl0aG9uJywgJy1waHQnLCAnMS4wJywgJy1waCcsICc3LjAnLCAnLXRuJywgJzgnLCAnLW1hJywgJzIwMCcsICctaW1hZScsICc8aW5maWxlLm1hZT4nLCAnLW9tYWUnLCAnPG91dGZpbGUubWFlPic=

> <r_lp_tautomer_probability>
1

> <r_epik_Ionization_Penalty>
  0.0000

> <r_epik_Ionization_Penalty_Charging>
  0.0000

> <r_epik_Ionization_Penalty_Neutral>
  0.0000

> <r_epik_State_Penalty>
  0.0000

> <r_epik_Charging_Adjusted_Penalty>
0

> <i_epik_Tot_Q>
1

> <i_epik_Tot_abs_Q>
1

> <i_f3d_flags>
0

> <s_lp_Force_Field>
OPLS_2005

> <r_lp_Energy>
10.937937

> <b_lp_Chiralities_Consistent>
1

> <s_lp_Variant>
mol_ID_132-1

> <s_m_subgroup_title>
ligprep_SpotXplore-out1

> <s_m_subgroupid>
ligprep_SpotXplore-out1

> <b_m_subgroup_collapsed>
0

$$$$
mol_ID_133
                    3D
 Schrodinger Suite 2020-4.
 15 15  0  0  1  0            999 V2000
   -0.0296   -0.0041    0.0000 C   0  0  0  0  0  0
    1.4410    0.0094   -0.0000 N   0  3  0  0  0  0
    2.1070    1.1923   -0.0000 C   0  0  0  0  0  0
    3.5169    1.2174   -0.0000 C   0  0  0  0  0  0
    4.2247   -0.0009   -0.0000 C   0  0  0  0  0  0
    5.9493   -0.0077   -0.0000 Cl  0  0  0  0  0  0
    3.5074   -1.2138   -0.0000 C   0  0  0  0  0  0
    2.0979   -1.1769   -0.0000 C   0  0  0  0  0  0
   -0.4172    1.0152    0.0000 H   0  0  0  0  0  0
   -0.3686   -0.5275    0.8947 H   0  0  0  0  0  0
   -0.3686   -0.5275   -0.8947 H   0  0  0  0  0  0
    1.5075    2.0910   -0.0000 H   0  0  0  0  0  0
    4.0470    2.1589   -0.0000 H   0  0  0  0  0  0
    4.0298   -2.1595   -0.0000 H   0  0  0  0  0  0
    1.4838   -2.0663   -0.0000 H   0  0  0  0  0  0
  1  2  1  0  0  0
  1  9  1  0  0  0
  1 10  1  0  0  0
  1 11  1  0  0  0
  2  8  1  0  0  0
  2  3  2  0  0  0
  3  4  1  0  0  0
  3 12  1  0  0  0
  4  5  2  0  0  0
  4 13  1  0  0  0
  5  6  1  0  0  0
  5  7  1  0  0  0
  7  8  2  0  0  0
  7 14  1  0  0  0
  8 15  1  0  0  0
M  CHG  1   2   1
M  END
> <s_m_entry_id>
1008

> <s_m_entry_name>
Spot_Xplore.std.133

> <s_m_Source_Path>
/Volumes/cluster/ddu/2448959/Work/2023/01_Fragment_screening_lib/1_Library_Construction/Work/SpotX/Ph4_Hypo_JC2

> <s_m_Source_File>
SpotX.maegz

> <i_m_Source_File_Index>
142

> <s_m_job_name>
ligprep_SpotXplore

> <i_lp_mmshare_version>
52144

> <s_epik_input>
W0NIM11bbitdMVtjSF1bY0hdYyhDbClbY0hdW2NIXTE=

> <s_epik_cmdline>
J2VwaWtfcHl0aG9uJywgJy1waHQnLCAnMS4wJywgJy1waCcsICc3LjAnLCAnLXRuJywgJzgnLCAnLW1hJywgJzIwMCcsICctaW1hZScsICc8aW5maWxlLm1hZT4nLCAnLW9tYWUnLCAnPG91dGZpbGUubWFlPic=

> <r_lp_tautomer_probability>
1

> <r_epik_Ionization_Penalty>
  0.0000

> <r_epik_Ionization_Penalty_Charging>
  0.0000

> <r_epik_Ionization_Penalty_Neutral>
  0.0000

> <r_epik_State_Penalty>
  0.0000

> <r_epik_Charging_Adjusted_Penalty>
0

> <i_epik_Tot_Q>
1

> <i_epik_Tot_abs_Q>
1

> <i_f3d_flags>
0

> <s_lp_Force_Field>
OPLS_2005

> <r_lp_Energy>
8.668733

> <b_lp_Chiralities_Consistent>
1

> <s_lp_Variant>
mol_ID_133-1

> <s_m_subgroup_title>
ligprep_SpotXplore-out1

> <s_m_subgroupid>
ligprep_SpotXplore-out1

> <b_m_subgroup_collapsed>
0

$$$$
mol_ID_134
                    3D
 Schrodinger Suite 2020-4.
 16 16  0  0  1  0            999 V2000
   -1.2012    0.0068    0.0018 C   0  0  0  0  0  0
    0.0199    0.0060   -0.0016 C   0  0  0  0  0  0
    1.4727    0.0122   -0.0001 C   0  0  0  0  0  0
    2.2052    1.2115    0.0001 C   0  0  0  0  0  0
    3.5530    1.2068    0.0001 N   0  0  0  0  0  0
    4.2005    0.0346    0.0000 C   0  0  0  0  0  0
    3.5741   -1.1564    0.0001 N   0  3  0  0  0  0
    4.3607   -2.3973    0.0000 C   0  0  0  0  0  0
    2.2133   -1.1858    0.0001 C   0  0  0  0  0  0
   -2.2685    0.0072    0.0013 H   0  0  0  0  0  0
    1.7180    2.1761   -0.0001 H   0  0  0  0  0  0
    5.2813    0.0213   -0.0000 H   0  0  0  0  0  0
    3.6951   -3.2611    0.0000 H   0  0  0  0  0  0
    4.9842   -2.4099    0.8949 H   0  0  0  0  0  0
    4.9842   -2.4099   -0.8949 H   0  0  0  0  0  0
    1.7522   -2.1634   -0.0001 H   0  0  0  0  0  0
  1  2  3  0  0  0
  1 10  1  0  0  0
  2  3  1  0  0  0
  3  9  1  0  0  0
  3  4  2  0  0  0
  4  5  1  0  0  0
  4 11  1  0  0  0
  5  6  2  0  0  0
  6  7  1  0  0  0
  6 12  1  0  0  0
  7  8  1  0  0  0
  7  9  2  0  0  0
  8 13  1  0  0  0
  8 14  1  0  0  0
  8 15  1  0  0  0
  9 16  1  0  0  0
M  CHG  1   7   1
M  END
> <s_m_entry_id>
1009

> <s_m_entry_name>
Spot_Xplore.std.134

> <s_m_Source_Path>
/Volumes/cluster/ddu/2448959/Work/2023/01_Fragment_screening_lib/1_Library_Construction/Work/SpotX/Ph4_Hypo_JC2

> <s_m_Source_File>
SpotX.maegz

> <i_m_Source_File_Index>
143

> <s_m_job_name>
ligprep_SpotXplore

> <i_lp_mmshare_version>
52144

> <s_epik_input>
W0NIXSNDYzFbY0hdbltjSF1bbitdKFtDSDNdKVtjSF0x

> <s_epik_cmdline>
J2VwaWtfcHl0aG9uJywgJy1waHQnLCAnMS4wJywgJy1waCcsICc3LjAnLCAnLXRuJywgJzgnLCAnLW1hJywgJzIwMCcsICctaW1hZScsICc8aW5maWxlLm1hZT4nLCAnLW9tYWUnLCAnPG91dGZpbGUubWFlPic=

> <r_lp_tautomer_probability>
1

> <r_epik_Ionization_Penalty>
  0.0000

> <r_epik_Ionization_Penalty_Charging>
  0.0000

> <r_epik_Ionization_Penalty_Neutral>
  0.0000

> <r_epik_State_Penalty>
  0.0000

> <r_epik_Charging_Adjusted_Penalty>
0

> <i_epik_Tot_Q>
1

> <i_epik_Tot_abs_Q>
1

> <i_f3d_flags>
0

> <s_lp_Force_Field>
OPLS_2005

> <r_lp_Energy>
6.955218

> <b_lp_Chiralities_Consistent>
1

> <s_lp_Variant>
mol_ID_134-1

> <s_epik_Chemistry_Notes>
This compound contains an electron-poor aromatic ring that is susceptible to covalent hydrolysis at low pH, typically resulting in measured values for nitrogen ring protonation that are around two units higher than predicted values.

> <s_m_subgroup_title>
ligprep_SpotXplore-out1

> <s_m_subgroupid>
ligprep_SpotXplore-out1

> <b_m_subgroup_collapsed>
0

$$$$
mol_ID_135
                    3D
 Schrodinger Suite 2020-4.
 14 14  0  0  1  0            999 V2000
    0.0099   -0.0137   -0.0000 C   0  0  0  0  0  0
    1.4784    0.0212    0.0000 N   0  3  0  0  0  0
    2.1547    1.2015    0.0000 C   0  0  0  0  0  0
    3.5619    1.2197    0.0000 C   0  0  0  0  0  0
    4.2156   -0.0236    0.0000 C   0  0  0  0  0  0
    5.9393   -0.0818    0.0000 Cl  0  0  0  0  0  0
    3.5147   -1.1748    0.0000 N   0  0  0  0  0  0
    2.1768   -1.1283   -0.0000 C   0  0  0  0  0  0
   -0.3875    1.0020   -0.0000 H   0  0  0  0  0  0
   -0.3214   -0.5419    0.8950 H   0  0  0  0  0  0
   -0.3214   -0.5419   -0.8950 H   0  0  0  0  0  0
    1.5580    2.1022    0.0000 H   0  0  0  0  0  0
    4.1135    2.1485    0.0000 H   0  0  0  0  0  0
    1.6100   -2.0483   -0.0000 H   0  0  0  0  0  0
  1  2  1  0  0  0
  1  9  1  0  0  0
  1 10  1  0  0  0
  1 11  1  0  0  0
  2  8  1  0  0  0
  2  3  2  0  0  0
  3  4  1  0  0  0
  3 12  1  0  0  0
  4  5  2  0  0  0
  4 13  1  0  0  0
  5  6  1  0  0  0
  5  7  1  0  0  0
  7  8  2  0  0  0
  8 14  1  0  0  0
M  CHG  1   2   1
M  END
> <s_m_entry_id>
1010

> <s_m_entry_name>
Spot_Xplore.std.135

> <s_m_Source_Path>
/Volumes/cluster/ddu/2448959/Work/2023/01_Fragment_screening_lib/1_Library_Construction/Work/SpotX/Ph4_Hypo_JC2

> <s_m_Source_File>
SpotX.maegz

> <i_m_Source_File_Index>
144

> <s_m_job_name>
ligprep_SpotXplore

> <i_lp_mmshare_version>
52144

> <s_epik_input>
W0NIM11bbitdMVtjSF1bY0hdYyhDbCluW2NIXTE=

> <s_epik_cmdline>
J2VwaWtfcHl0aG9uJywgJy1waHQnLCAnMS4wJywgJy1waCcsICc3LjAnLCAnLXRuJywgJzgnLCAnLW1hJywgJzIwMCcsICctaW1hZScsICc8aW5maWxlLm1hZT4nLCAnLW9tYWUnLCAnPG91dGZpbGUubWFlPic=

> <r_lp_tautomer_probability>
1

> <r_epik_Ionization_Penalty>
  0.0000

> <r_epik_Ionization_Penalty_Charging>
  0.0000

> <r_epik_Ionization_Penalty_Neutral>
  0.0000

> <r_epik_State_Penalty>
  0.0000

> <r_epik_Charging_Adjusted_Penalty>
0

> <i_epik_Tot_Q>
1

> <i_epik_Tot_abs_Q>
1

> <i_f3d_flags>
0

> <s_lp_Force_Field>
OPLS_2005

> <r_lp_Energy>
4.186168

> <b_lp_Chiralities_Consistent>
1

> <s_lp_Variant>
mol_ID_135-1

> <s_epik_Chemistry_Notes>
This compound contains an electron-poor aromatic ring that is susceptible to covalent hydrolysis at low pH, typically resulting in measured values for nitrogen ring protonation that are around two units higher than predicted values.

> <s_m_subgroup_title>
ligprep_SpotXplore-out1

> <s_m_subgroupid>
ligprep_SpotXplore-out1

> <b_m_subgroup_collapsed>
0

$$$$
mol_ID_136
                    3D
 Schrodinger Suite 2020-4.
 14 14  0  0  1  0            999 V2000
    0.0024    0.0112   -0.0000 C   0  0  0  0  0  0
    1.4751    0.0118    0.0000 N   0  3  0  0  0  0
    2.1512    1.1940    0.0000 C   0  0  0  0  0  0
    3.5563    1.2219    0.0000 C   0  0  0  0  0  0
    4.2059   -0.0193    0.0000 C   0  0  0  0  0  0
    3.5095   -1.1709    0.0000 N   0  0  0  0  0  0
    2.1689   -1.1491   -0.0000 C   0  0  0  0  0  0
    1.1937   -3.0056   -0.0000 I   0  0  0  0  0  0
   -0.3740    1.0347   -0.0000 H   0  0  0  0  0  0
   -0.3443   -0.5035    0.8969 H   0  0  0  0  0  0
   -0.3443   -0.5035   -0.8969 H   0  0  0  0  0  0
    1.5543    2.0946    0.0000 H   0  0  0  0  0  0
    4.1070    2.1513    0.0000 H   0  0  0  0  0  0
    5.2836   -0.0912    0.0000 H   0  0  0  0  0  0
  1  2  1  0  0  0
  1  9  1  0  0  0
  1 10  1  0  0  0
  1 11  1  0  0  0
  2  7  1  0  0  0
  2  3  2  0  0  0
  3  4  1  0  0  0
  3 12  1  0  0  0
  4  5  2  0  0  0
  4 13  1  0  0  0
  5  6  1  0  0  0
  5 14  1  0  0  0
  6  7  2  0  0  0
  7  8  1  0  0  0
M  CHG  1   2   1
M  END
> <s_m_entry_id>
1011

> <s_m_entry_name>
Spot_Xplore.std.136

> <s_m_Source_Path>
/Volumes/cluster/ddu/2448959/Work/2023/01_Fragment_screening_lib/1_Library_Construction/Work/SpotX/Ph4_Hypo_JC2

> <s_m_Source_File>
SpotX.maegz

> <i_m_Source_File_Index>
145

> <s_m_job_name>
ligprep_SpotXplore

> <i_lp_mmshare_version>
52144

> <s_epik_input>
W0NIM11bbitdMVtjSF1bY0hdW2NIXW5jMUk=

> <s_epik_cmdline>
J2VwaWtfcHl0aG9uJywgJy1waHQnLCAnMS4wJywgJy1waCcsICc3LjAnLCAnLXRuJywgJzgnLCAnLW1hJywgJzIwMCcsICctaW1hZScsICc8aW5maWxlLm1hZT4nLCAnLW9tYWUnLCAnPG91dGZpbGUubWFlPic=

> <r_lp_tautomer_probability>
1

> <r_epik_Ionization_Penalty>
  0.0000

> <r_epik_Ionization_Penalty_Charging>
  0.0000

> <r_epik_Ionization_Penalty_Neutral>
  0.0000

> <r_epik_State_Penalty>
  0.0000

> <r_epik_Charging_Adjusted_Penalty>
0

> <i_epik_Tot_Q>
1

> <i_epik_Tot_abs_Q>
1

> <i_f3d_flags>
0

> <s_lp_Force_Field>
OPLS_2005

> <r_lp_Energy>
5.464439

> <b_lp_Chiralities_Consistent>
1

> <s_lp_Variant>
mol_ID_136-1

> <s_epik_Chemistry_Notes>
This compound contains an electron-poor aromatic ring that is susceptible to covalent hydrolysis at low pH, typically resulting in measured values for nitrogen ring protonation that are around two units higher than predicted values.

> <s_m_subgroup_title>
ligprep_SpotXplore-out1

> <s_m_subgroupid>
ligprep_SpotXplore-out1

> <b_m_subgroup_collapsed>
0

$$$$
mol_ID_137
                    3D
 Schrodinger Suite 2020-4.
 16 16  0  0  1  0            999 V2000
    0.0280   -0.0402   -0.0000 C   0  0  0  0  0  0
    1.4895    0.0185   -0.0000 N   0  0  0  0  0  0
    2.2817    1.1382   -0.0000 C   0  0  0  0  0  0
    3.5865    0.7044   -0.0000 C   0  0  0  0  0  0
    3.5552   -0.6674    0.0000 N   0  3  0  0  0  0
    4.7163   -1.5608    0.0000 C   0  0  0  0  0  0
    2.2753   -1.0635    0.0000 C   0  0  0  0  0  0
    1.5825   -3.0442    0.0000 I   0  0  0  0  0  0
   -0.3783    0.9717   -0.0000 H   0  0  0  0  0  0
   -0.3121   -0.5667    0.8923 H   0  0  0  0  0  0
   -0.3121   -0.5667   -0.8923 H   0  0  0  0  0  0
    1.8713    2.1377   -0.0000 H   0  0  0  0  0  0
    4.5136    1.2590   -0.0000 H   0  0  0  0  0  0
    4.4119   -2.6060    0.0000 H   0  0  0  0  0  0
    5.3144   -1.3620    0.8896 H   0  0  0  0  0  0
    5.3144   -1.3620   -0.8896 H   0  0  0  0  0  0
  1  2  1  0  0  0
  1  9  1  0  0  0
  1 10  1  0  0  0
  1 11  1  0  0  0
  2  7  1  0  0  0
  2  3  1  0  0  0
  3  4  2  0  0  0
  3 12  1  0  0  0
  4  5  1  0  0  0
  4 13  1  0  0  0
  5  6  1  0  0  0
  5  7  2  0  0  0
  6 14  1  0  0  0
  6 15  1  0  0  0
  6 16  1  0  0  0
  7  8  1  0  0  0
M  CHG  1   5   1
M  END
> <s_m_entry_id>
1012

> <s_m_entry_name>
Spot_Xplore.std.137

> <s_m_Source_Path>
/Volumes/cluster/ddu/2448959/Work/2023/01_Fragment_screening_lib/1_Library_Construction/Work/SpotX/Ph4_Hypo_JC2

> <s_m_Source_File>
SpotX.maegz

> <i_m_Source_File_Index>
146

> <s_m_job_name>
ligprep_SpotXplore

> <i_lp_mmshare_version>
52144

> <s_epik_input>
W0NIM11uMVtjSF1bY0hdW24rXShbQ0gzXSljMUk=

> <s_epik_cmdline>
J2VwaWtfcHl0aG9uJywgJy1waHQnLCAnMS4wJywgJy1waCcsICc3LjAnLCAnLXRuJywgJzgnLCAnLW1hJywgJzIwMCcsICctaW1hZScsICc8aW5maWxlLm1hZT4nLCAnLW9tYWUnLCAnPG91dGZpbGUubWFlPic=

> <r_lp_tautomer_probability>
1

> <r_epik_Ionization_Penalty>
  0.0000

> <r_epik_Ionization_Penalty_Charging>
  0.0000

> <r_epik_Ionization_Penalty_Neutral>
  0.0000

> <r_epik_State_Penalty>
  0.0000

> <r_epik_Charging_Adjusted_Penalty>
0

> <i_epik_Tot_Q>
1

> <i_epik_Tot_abs_Q>
1

> <i_f3d_flags>
0

> <s_lp_Force_Field>
OPLS_2005

> <r_lp_Energy>
6.834333

> <b_lp_Chiralities_Consistent>
1

> <s_lp_Variant>
mol_ID_137-1

> <s_m_subgroup_title>
ligprep_SpotXplore-out1

> <s_m_subgroupid>
ligprep_SpotXplore-out1

> <b_m_subgroup_collapsed>
0

$$$$
mol_ID_138
                    3D
 Schrodinger Suite 2020-4.
 16 16  0  0  1  0            999 V2000
    0.0343   -0.0396    0.0000 C   0  0  0  0  0  0
    1.4933    0.0362    0.0000 N   0  0  0  0  0  0
    2.2691    1.1686    0.0000 C   0  0  0  0  0  0
    3.5588    0.7161    0.0000 C   0  0  0  0  0  0
    4.9836    1.6898    0.0000 Cl  0  0  0  0  0  0
    3.5428   -0.6505    0.0000 N   0  3  0  0  0  0
    4.6838   -1.5656   -0.0000 C   0  0  0  0  0  0
    2.2671   -1.0624   -0.0000 C   0  0  0  0  0  0
   -0.3852    0.9670   -0.0000 H   0  0  0  0  0  0
   -0.2974   -0.5725    0.8918 H   0  0  0  0  0  0
   -0.2974   -0.5725   -0.8918 H   0  0  0  0  0  0
    1.8592    2.1682    0.0000 H   0  0  0  0  0  0
    4.3369   -2.5997   -0.0000 H   0  0  0  0  0  0
    5.2855   -1.3839    0.8910 H   0  0  0  0  0  0
    5.2855   -1.3839   -0.8910 H   0  0  0  0  0  0
    1.9244   -2.0820   -0.0000 H   0  0  0  0  0  0
  1  2  1  0  0  0
  1  9  1  0  0  0
  1 10  1  0  0  0
  1 11  1  0  0  0
  2  8  1  0  0  0
  2  3  1  0  0  0
  3  4  2  0  0  0
  3 12  1  0  0  0
  4  5  1  0  0  0
  4  6  1  0  0  0
  6  7  1  0  0  0
  6  8  2  0  0  0
  7 13  1  0  0  0
  7 14  1  0  0  0
  7 15  1  0  0  0
  8 16  1  0  0  0
M  CHG  1   6   1
M  END
> <s_m_entry_id>
1013

> <s_m_entry_name>
Spot_Xplore.std.138

> <s_m_Source_Path>
/Volumes/cluster/ddu/2448959/Work/2023/01_Fragment_screening_lib/1_Library_Construction/Work/SpotX/Ph4_Hypo_JC2

> <s_m_Source_File>
SpotX.maegz

> <i_m_Source_File_Index>
147

> <s_m_job_name>
ligprep_SpotXplore

> <i_lp_mmshare_version>
52144

> <s_epik_input>
W0NIM11uMVtjSF1jKENsKVtuK10oW0NIM10pW2NIXTE=

> <s_epik_cmdline>
J2VwaWtfcHl0aG9uJywgJy1waHQnLCAnMS4wJywgJy1waCcsICc3LjAnLCAnLXRuJywgJzgnLCAnLW1hJywgJzIwMCcsICctaW1hZScsICc8aW5maWxlLm1hZT4nLCAnLW9tYWUnLCAnPG91dGZpbGUubWFlPic=

> <r_lp_tautomer_probability>
1

> <r_epik_Ionization_Penalty>
  0.0000

> <r_epik_Ionization_Penalty_Charging>
  0.0000

> <r_epik_Ionization_Penalty_Neutral>
  0.0000

> <r_epik_State_Penalty>
  0.0000

> <r_epik_Charging_Adjusted_Penalty>
0

> <i_epik_Tot_Q>
1

> <i_epik_Tot_abs_Q>
1

> <i_f3d_flags>
0

> <s_lp_Force_Field>
OPLS_2005

> <r_lp_Energy>
4.815324

> <b_lp_Chiralities_Consistent>
1

> <s_lp_Variant>
mol_ID_138-1

> <s_m_subgroup_title>
ligprep_SpotXplore-out1

> <s_m_subgroupid>
ligprep_SpotXplore-out1

> <b_m_subgroup_collapsed>
0

$$$$
mol_ID_139
                    3D
 Schrodinger Suite 2020-4.
 12 12  0  0  1  0            999 V2000
    0.0454   -0.0219    0.0000 C   0  0  0  0  0  0
    1.5094   -0.0275    0.0000 N   0  3  0  0  0  0
    2.3092    1.1128    0.0000 C   0  0  0  0  0  0
    3.6513    0.8155    0.0000 C   0  0  0  0  0  0
    3.9369   -0.9053    0.0000 S   0  0  0  0  0  0
    2.2247   -1.1609   -0.0000 C   0  0  0  0  0  0
    1.4595   -2.9063   -0.0000 Br  0  0  0  0  0  0
   -0.3205    1.0053    0.0000 H   0  0  0  0  0  0
   -0.3171   -0.5333    0.8923 H   0  0  0  0  0  0
   -0.3171   -0.5333   -0.8923 H   0  0  0  0  0  0
    1.8305    2.0816    0.0000 H   0  0  0  0  0  0
    4.4862    1.5011    0.0000 H   0  0  0  0  0  0
  1  2  1  0  0  0
  1  8  1  0  0  0
  1  9  1  0  0  0
  1 10  1  0  0  0
  2  6  2  0  0  0
  2  3  1  0  0  0
  3  4  2  0  0  0
  3 11  1  0  0  0
  4  5  1  0  0  0
  4 12  1  0  0  0
  5  6  1  0  0  0
  6  7  1  0  0  0
M  CHG  1   2   1
M  END
> <s_m_entry_id>
1014

> <s_m_entry_name>
Spot_Xplore.std.139

> <s_m_Source_Path>
/Volumes/cluster/ddu/2448959/Work/2023/01_Fragment_screening_lib/1_Library_Construction/Work/SpotX/Ph4_Hypo_JC2

> <s_m_Source_File>
SpotX.maegz

> <i_m_Source_File_Index>
148

> <s_m_job_name>
ligprep_SpotXplore

> <i_lp_mmshare_version>
52144

> <s_epik_input>
W0NIM11bbitdMVtjSF1bY0hdc2MxQnI=

> <s_epik_cmdline>
J2VwaWtfcHl0aG9uJywgJy1waHQnLCAnMS4wJywgJy1waCcsICc3LjAnLCAnLXRuJywgJzgnLCAnLW1hJywgJzIwMCcsICctaW1hZScsICc8aW5maWxlLm1hZT4nLCAnLW9tYWUnLCAnPG91dGZpbGUubWFlPic=

> <r_lp_tautomer_probability>
1

> <r_epik_Ionization_Penalty>
  0.0000

> <r_epik_Ionization_Penalty_Charging>
  0.0000

> <r_epik_Ionization_Penalty_Neutral>
  0.0000

> <r_epik_State_Penalty>
  0.0000

> <r_epik_Charging_Adjusted_Penalty>
0

> <i_epik_Tot_Q>
1

> <i_epik_Tot_abs_Q>
1

> <i_f3d_flags>
0

> <s_lp_Force_Field>
OPLS_2005

> <r_lp_Energy>
4.767265

> <b_lp_Chiralities_Consistent>
1

> <s_lp_Variant>
mol_ID_139-1

> <s_m_subgroup_title>
ligprep_SpotXplore-out1

> <s_m_subgroupid>
ligprep_SpotXplore-out1

> <b_m_subgroup_collapsed>
0

$$$$
mol_ID_140
                    3D
 Schrodinger Suite 2020-4.
 14 14  0  0  1  0            999 V2000
    0.0036    0.0080   -0.0000 C   0  0  0  0  0  0
    1.4764    0.0123    0.0000 N   0  3  0  0  0  0
    2.1517    1.1947    0.0000 C   0  0  0  0  0  0
    3.5568    1.2229    0.0000 C   0  0  0  0  0  0
    4.2070   -0.0182    0.0000 C   0  0  0  0  0  0
    3.5112   -1.1703    0.0000 N   0  0  0  0  0  0
    2.1706   -1.1478   -0.0000 C   0  0  0  0  0  0
    1.2752   -2.8319   -0.0000 Br  0  0  0  0  0  0
   -0.3750    1.0307   -0.0000 H   0  0  0  0  0  0
   -0.3417   -0.5085    0.8965 H   0  0  0  0  0  0
   -0.3417   -0.5085   -0.8965 H   0  0  0  0  0  0
    1.5541    2.0948    0.0000 H   0  0  0  0  0  0
    4.1073    2.1524    0.0000 H   0  0  0  0  0  0
    5.2847   -0.0895    0.0000 H   0  0  0  0  0  0
  1  2  1  0  0  0
  1  9  1  0  0  0
  1 10  1  0  0  0
  1 11  1  0  0  0
  2  7  1  0  0  0
  2  3  2  0  0  0
  3  4  1  0  0  0
  3 12  1  0  0  0
  4  5  2  0  0  0
  4 13  1  0  0  0
  5  6  1  0  0  0
  5 14  1  0  0  0
  6  7  2  0  0  0
  7  8  1  0  0  0
M  CHG  1   2   1
M  END
> <s_m_entry_id>
1015

> <s_m_entry_name>
Spot_Xplore.std.140

> <s_m_Source_Path>
/Volumes/cluster/ddu/2448959/Work/2023/01_Fragment_screening_lib/1_Library_Construction/Work/SpotX/Ph4_Hypo_JC2

> <s_m_Source_File>
SpotX.maegz

> <i_m_Source_File_Index>
149

> <s_m_job_name>
ligprep_SpotXplore

> <i_lp_mmshare_version>
52144

> <s_epik_input>
W0NIM11bbitdMVtjSF1bY0hdW2NIXW5jMUJy

> <s_epik_cmdline>
J2VwaWtfcHl0aG9uJywgJy1waHQnLCAnMS4wJywgJy1waCcsICc3LjAnLCAnLXRuJywgJzgnLCAnLW1hJywgJzIwMCcsICctaW1hZScsICc8aW5maWxlLm1hZT4nLCAnLW9tYWUnLCAnPG91dGZpbGUubWFlPic=

> <r_lp_tautomer_probability>
1

> <r_epik_Ionization_Penalty>
  0.0000

> <r_epik_Ionization_Penalty_Charging>
  0.0000

> <r_epik_Ionization_Penalty_Neutral>
  0.0000

> <r_epik_State_Penalty>
  0.0000

> <r_epik_Charging_Adjusted_Penalty>
0

> <i_epik_Tot_Q>
1

> <i_epik_Tot_abs_Q>
1

> <i_f3d_flags>
0

> <s_lp_Force_Field>
OPLS_2005

> <r_lp_Energy>
4.902496

> <b_lp_Chiralities_Consistent>
1

> <s_lp_Variant>
mol_ID_140-1

> <s_epik_Chemistry_Notes>
This compound contains an electron-poor aromatic ring that is susceptible to covalent hydrolysis at low pH, typically resulting in measured values for nitrogen ring protonation that are around two units higher than predicted values.

> <s_m_subgroup_title>
ligprep_SpotXplore-out1

> <s_m_subgroupid>
ligprep_SpotXplore-out1

> <b_m_subgroup_collapsed>
0

$$$$
mol_ID_141
                    3D
 Schrodinger Suite 2020-4.
 21 21  0  0  1  0            999 V2000
   -0.7641    1.1772   -0.0958 C   0  0  0  0  0  0
   -0.0438    0.0499    0.0553 C   0  0  0  0  0  0
    1.4529    0.0006    0.0118 N   0  3  1  0  0  0
    1.9478   -1.3962   -0.0141 C   0  0  0  0  0  0
    1.9953    0.7868   -1.1230 C   0  0  0  0  0  0
    2.7593    1.8037   -0.6930 C   0  0  0  0  0  0
    2.7694    1.7663    0.7229 N   0  3  0  0  0  0
    3.4935    2.7158    1.5785 C   0  0  0  0  0  0
    2.0486    0.7776    1.1225 C   0  0  0  0  0  0
   -0.2983    2.1381   -0.2603 H   0  0  0  0  0  0
   -1.8434    1.1484   -0.0557 H   0  0  0  0  0  0
   -0.5134   -0.9097    0.2208 H   0  0  0  0  0  0
    3.0380   -1.4349   -0.0561 H   0  0  0  0  0  0
    1.5651   -1.9236   -0.8894 H   0  0  0  0  0  0
    1.6277   -1.9443    0.8738 H   0  0  0  0  0  0
    1.7464    0.4893   -2.1316 H   0  0  0  0  0  0
    3.3016    2.5607   -1.2412 H   0  0  0  0  0  0
    4.0210    3.4290    0.9442 H   0  0  0  0  0  0
    4.2043    2.1594    2.1906 H   0  0  0  0  0  0
    2.7710    3.2351    2.2091 H   0  0  0  0  0  0
    1.8904    0.5331    2.1665 H   0  0  0  0  0  0
  1  2  2  0  0  0
  1 10  1  0  0  0
  1 11  1  0  0  0
  2  3  1  0  0  0
  2 12  1  0  0  0
  3  9  1  0  0  0
  3  4  1  0  0  0
  3  5  1  0  0  0
  4 13  1  0  0  0
  4 14  1  0  0  0
  4 15  1  0  0  0
  5  6  2  0  0  0
  5 16  1  0  0  0
  6  7  1  0  0  0
  6 17  1  0  0  0
  7  8  1  0  0  0
  7  9  2  0  0  0
  8 18  1  0  0  0
  8 19  1  0  0  0
  8 20  1  0  0  0
  9 21  1  0  0  0
M  CHG  2   3   1   7   1
M  END
> <s_m_entry_id>
1016

> <s_m_entry_name>
Spot_Xplore.std.141

> <s_m_Source_Path>
/Volumes/cluster/ddu/2448959/Work/2023/01_Fragment_screening_lib/1_Library_Construction/Work/SpotX/Ph4_Hypo_JC2

> <s_m_Source_File>
SpotX.maegz

> <i_m_Source_File_Index>
150

> <s_m_job_name>
ligprep_SpotXplore

> <i_lp_mmshare_version>
52144

> <s_epik_input>
W0NIMl09W0NIXVtOQEArXTEoW0NIM10pW0NIXT1bQ0hdW04rXShbQ0gzXSk9W0NIXTE=

> <s_epik_cmdline>
J2VwaWtfcHl0aG9uJywgJy1waHQnLCAnMS4wJywgJy1waCcsICc3LjAnLCAnLXRuJywgJzgnLCAnLW1hJywgJzIwMCcsICctaW1hZScsICc8aW5maWxlLm1hZT4nLCAnLW9tYWUnLCAnPG91dGZpbGUubWFlPic=

> <r_lp_tautomer_probability>
1

> <r_epik_Ionization_Penalty>
  0.0000

> <r_epik_Ionization_Penalty_Charging>
  0.0000

> <r_epik_Ionization_Penalty_Neutral>
  0.0000

> <r_epik_State_Penalty>
  0.0000

> <r_epik_Charging_Adjusted_Penalty>
0

> <i_epik_Tot_Q>
2

> <i_epik_Tot_abs_Q>
2

> <i_f3d_flags>
0

> <s_lp_Force_Field>
OPLS_2005

> <r_lp_Energy>
27.949914

> <b_lp_Chiralities_Consistent>
1

> <s_lp_Variant>
mol_ID_141-1

> <s_epik_Chemistry_Notes>
This compound has an imine and may undergo hydrolysis.

> <s_m_subgroup_title>
ligprep_SpotXplore-out1

> <s_m_subgroupid>
ligprep_SpotXplore-out1

> <b_m_subgroup_collapsed>
0

$$$$
mol_ID_142
                    3D
 Schrodinger Suite 2020-4.
 15 15  0  0  1  0            999 V2000
   -0.0388    0.0285   -0.0000 C   0  0  0  0  0  0
    1.4346    0.0014    0.0000 N   0  3  0  0  0  0
    2.1104    1.1798    0.0000 C   0  0  0  0  0  0
    3.5188    1.2009    0.0000 C   0  0  0  0  0  0
    4.2192   -0.0190    0.0000 C   0  0  0  0  0  0
    3.4924   -1.2249    0.0000 C   0  0  0  0  0  0
    2.0810   -1.1977   -0.0000 C   0  0  0  0  0  0
    1.0571   -3.0284   -0.0000 I   0  0  0  0  0  0
   -0.4005    1.0574   -0.0000 H   0  0  0  0  0  0
   -0.3955   -0.4803    0.8964 H   0  0  0  0  0  0
   -0.3955   -0.4803   -0.8964 H   0  0  0  0  0  0
    1.5186    2.0836    0.0000 H   0  0  0  0  0  0
    4.0536    2.1397    0.0000 H   0  0  0  0  0  0
    5.2994   -0.0309    0.0000 H   0  0  0  0  0  0
    4.0163   -2.1698    0.0000 H   0  0  0  0  0  0
  1  2  1  0  0  0
  1  9  1  0  0  0
  1 10  1  0  0  0
  1 11  1  0  0  0
  2  7  1  0  0  0
  2  3  2  0  0  0
  3  4  1  0  0  0
  3 12  1  0  0  0
  4  5  2  0  0  0
  4 13  1  0  0  0
  5  6  1  0  0  0
  5 14  1  0  0  0
  6  7  2  0  0  0
  6 15  1  0  0  0
  7  8  1  0  0  0
M  CHG  1   2   1
M  END
> <s_m_entry_id>
1017

> <s_m_entry_name>
Spot_Xplore.std.142

> <s_m_Source_Path>
/Volumes/cluster/ddu/2448959/Work/2023/01_Fragment_screening_lib/1_Library_Construction/Work/SpotX/Ph4_Hypo_JC2

> <s_m_Source_File>
SpotX.maegz

> <i_m_Source_File_Index>
151

> <s_m_job_name>
ligprep_SpotXplore

> <i_lp_mmshare_version>
52144

> <s_epik_input>
W0NIM11bbitdMVtjSF1bY0hdW2NIXVtjSF1jMUk=

> <s_epik_cmdline>
J2VwaWtfcHl0aG9uJywgJy1waHQnLCAnMS4wJywgJy1waCcsICc3LjAnLCAnLXRuJywgJzgnLCAnLW1hJywgJzIwMCcsICctaW1hZScsICc8aW5maWxlLm1hZT4nLCAnLW9tYWUnLCAnPG91dGZpbGUubWFlPic=

> <r_lp_tautomer_probability>
1

> <r_epik_Ionization_Penalty>
  0.0000

> <r_epik_Ionization_Penalty_Charging>
  0.0000

> <r_epik_Ionization_Penalty_Neutral>
  0.0000

> <r_epik_State_Penalty>
  0.0000

> <r_epik_Charging_Adjusted_Penalty>
0

> <i_epik_Tot_Q>
1

> <i_epik_Tot_abs_Q>
1

> <i_f3d_flags>
0

> <s_lp_Force_Field>
OPLS_2005

> <r_lp_Energy>
10.108133

> <b_lp_Chiralities_Consistent>
1

> <s_lp_Variant>
mol_ID_142-1

> <s_m_subgroup_title>
ligprep_SpotXplore-out1

> <s_m_subgroupid>
ligprep_SpotXplore-out1

> <b_m_subgroup_collapsed>
0

$$$$
mol_ID_143
                    3D
 Schrodinger Suite 2020-4.
 14 14  0  0  1  0            999 V2000
   -0.0303   -0.0007    0.0000 C   0  0  0  0  0  0
    1.4388    0.0147    0.0000 N   0  3  0  0  0  0
    2.1233    1.1748    0.0000 C   0  0  0  0  0  0
    3.4614    1.2380    0.0000 N   0  0  0  0  0  0
    4.1720    0.0928    0.0000 C   0  0  0  0  0  0
    3.5360   -1.1587    0.0000 C   0  0  0  0  0  0
    4.6272   -2.9419    0.0000 I   0  0  0  0  0  0
    2.1289   -1.1571    0.0000 C   0  0  0  0  0  0
   -0.4149    1.0199   -0.0000 H   0  0  0  0  0  0
   -0.3687   -0.5243    0.8949 H   0  0  0  0  0  0
   -0.3687   -0.5243   -0.8949 H   0  0  0  0  0  0
    1.5513    2.0917    0.0000 H   0  0  0  0  0  0
    5.2488    0.1769    0.0000 H   0  0  0  0  0  0
    1.5364   -2.0608    0.0000 H   0  0  0  0  0  0
  1  2  1  0  0  0
  1  9  1  0  0  0
  1 10  1  0  0  0
  1 11  1  0  0  0
  2  8  1  0  0  0
  2  3  2  0  0  0
  3  4  1  0  0  0
  3 12  1  0  0  0
  4  5  2  0  0  0
  5  6  1  0  0  0
  5 13  1  0  0  0
  6  7  1  0  0  0
  6  8  2  0  0  0
  8 14  1  0  0  0
M  CHG  1   2   1
M  END
> <s_m_entry_id>
1018

> <s_m_entry_name>
Spot_Xplore.std.143

> <s_m_Source_Path>
/Volumes/cluster/ddu/2448959/Work/2023/01_Fragment_screening_lib/1_Library_Construction/Work/SpotX/Ph4_Hypo_JC2

> <s_m_Source_File>
SpotX.maegz

> <i_m_Source_File_Index>
152

> <s_m_job_name>
ligprep_SpotXplore

> <i_lp_mmshare_version>
52144

> <s_epik_input>
W0NIM11bbitdMVtjSF1uW2NIXWMoSSlbY0hdMQ==

> <s_epik_cmdline>
J2VwaWtfcHl0aG9uJywgJy1waHQnLCAnMS4wJywgJy1waCcsICc3LjAnLCAnLXRuJywgJzgnLCAnLW1hJywgJzIwMCcsICctaW1hZScsICc8aW5maWxlLm1hZT4nLCAnLW9tYWUnLCAnPG91dGZpbGUubWFlPic=

> <r_lp_tautomer_probability>
1

> <r_epik_Ionization_Penalty>
  0.0000

> <r_epik_Ionization_Penalty_Charging>
  0.0000

> <r_epik_Ionization_Penalty_Neutral>
  0.0000

> <r_epik_State_Penalty>
  0.0000

> <r_epik_Charging_Adjusted_Penalty>
0

> <i_epik_Tot_Q>
1

> <i_epik_Tot_abs_Q>
1

> <i_f3d_flags>
0

> <s_lp_Force_Field>
OPLS_2005

> <r_lp_Energy>
6.727295

> <b_lp_Chiralities_Consistent>
1

> <s_lp_Variant>
mol_ID_143-1

> <s_epik_Chemistry_Notes>
This compound contains an electron-poor aromatic ring that is susceptible to covalent hydrolysis at low pH, typically resulting in measured values for nitrogen ring protonation that are around two units higher than predicted values.

> <s_m_subgroup_title>
ligprep_SpotXplore-out1

> <s_m_subgroupid>
ligprep_SpotXplore-out1

> <b_m_subgroup_collapsed>
0

$$$$
mol_ID_144
                    3D
 Schrodinger Suite 2020-4.
 18 18  0  0  1  0            999 V2000
   -0.9829    2.5637   -0.0098 C   0  0  0  0  0  0
   -0.5356    1.4276    0.0031 C   0  0  0  0  0  0
    0.0080    0.0592    0.0321 C   0  0  0  0  0  0
    1.4791    0.0122    0.0127 N   0  0  0  0  0  0
    2.3302   -0.0089    1.0784 C   0  0  0  0  0  0
    3.6076   -0.0439    0.5231 C   0  0  0  0  0  0
    3.5326   -0.0416   -0.8683 C   0  0  0  0  0  0
    2.1994   -0.0050   -1.1510 N   0  3  0  0  0  0
    1.5522    0.0139   -2.4678 C   0  0  0  0  0  0
   -1.3785    3.5547   -0.0187 H   0  0  0  0  0  0
   -0.3295   -0.4182    0.9524 H   0  0  0  0  0  0
   -0.4017   -0.5199   -0.7948 H   0  0  0  0  0  0
    1.9835    0.0026    2.1016 H   0  0  0  0  0  0
    4.5261   -0.0683    1.0911 H   0  0  0  0  0  0
    4.2924   -0.0616   -1.6361 H   0  0  0  0  0  0
    2.3162    0.0879   -3.2421 H   0  0  0  0  0  0
    0.8882    0.8752   -2.5422 H   0  0  0  0  0  0
    0.9911   -0.9097   -2.6110 H   0  0  0  0  0  0
  1  2  3  0  0  0
  1 10  1  0  0  0
  2  3  1  0  0  0
  3  4  1  0  0  0
  3 11  1  0  0  0
  3 12  1  0  0  0
  4  8  1  0  0  0
  4  5  1  0  0  0
  5  6  2  0  0  0
  5 13  1  0  0  0
  6  7  1  0  0  0
  6 14  1  0  0  0
  7  8  2  0  0  0
  7 15  1  0  0  0
  8  9  1  0  0  0
  9 16  1  0  0  0
  9 17  1  0  0  0
  9 18  1  0  0  0
M  CHG  1   8   1
M  END
> <s_m_entry_id>
1019

> <s_m_entry_name>
Spot_Xplore.std.144

> <s_m_Source_Path>
/Volumes/cluster/ddu/2448959/Work/2023/01_Fragment_screening_lib/1_Library_Construction/Work/SpotX/Ph4_Hypo_JC2

> <s_m_Source_File>
SpotX.maegz

> <i_m_Source_File_Index>
153

> <s_m_job_name>
ligprep_SpotXplore

> <i_lp_mmshare_version>
52144

> <s_epik_input>
W0NIXSNDW0NIMl1uMVtjSF1bY0hdW2NIXVtuK10xW0NIM10=

> <s_epik_cmdline>
J2VwaWtfcHl0aG9uJywgJy1waHQnLCAnMS4wJywgJy1waCcsICc3LjAnLCAnLXRuJywgJzgnLCAnLW1hJywgJzIwMCcsICctaW1hZScsICc8aW5maWxlLm1hZT4nLCAnLW9tYWUnLCAnPG91dGZpbGUubWFlPic=

> <r_lp_tautomer_probability>
1

> <r_epik_Ionization_Penalty>
  0.0000

> <r_epik_Ionization_Penalty_Charging>
  0.0000

> <r_epik_Ionization_Penalty_Neutral>
  0.0000

> <r_epik_State_Penalty>
  0.0000

> <r_epik_Charging_Adjusted_Penalty>
0

> <i_epik_Tot_Q>
1

> <i_epik_Tot_abs_Q>
1

> <i_f3d_flags>
0

> <s_lp_Force_Field>
OPLS_2005

> <r_lp_Energy>
14.359665

> <b_lp_Chiralities_Consistent>
1

> <s_lp_Variant>
mol_ID_144-1

> <s_m_subgroup_title>
ligprep_SpotXplore-out1

> <s_m_subgroupid>
ligprep_SpotXplore-out1

> <b_m_subgroup_collapsed>
0

$$$$
mol_ID_145
                    3D
 Schrodinger Suite 2020-4.
 15 16  0  0  1  0            999 V2000
   -1.1483   -0.0219    0.0000 N   0  0  0  0  0  0
    0.0084   -0.0048    0.0000 C   0  0  0  0  0  0
    1.4616    0.0167   -0.0000 C   0  0  0  0  0  0
    2.1510    1.2458   -0.0000 C   0  0  0  0  0  0
    3.5601    1.2705   -0.0000 C   0  0  0  0  0  0
    4.3135    0.0735   -0.0000 C   0  0  0  0  0  0
    5.7020   -0.0415   -0.0000 N   0  0  0  0  0  0
    6.0370   -1.3353   -0.0000 C   0  0  0  0  0  0
    4.7243   -2.5128   -0.0000 S   0  0  0  0  0  0
    3.5932   -1.1605   -0.0000 C   0  0  0  0  0  0
    2.1862   -1.1909   -0.0000 C   0  0  0  0  0  0
    1.6035    2.1776   -0.0000 H   0  0  0  0  0  0
    4.0732    2.2208   -0.0000 H   0  0  0  0  0  0
    7.0819   -1.6085   -0.0000 H   0  0  0  0  0  0
    1.6711   -2.1410    0.0000 H   0  0  0  0  0  0
  1  2  3  0  0  0
  2  3  1  0  0  0
  3 11  1  0  0  0
  3  4  2  0  0  0
  4  5  1  0  0  0
  4 12  1  0  0  0
  5  6  2  0  0  0
  5 13  1  0  0  0
  6 10  1  0  0  0
  6  7  1  0  0  0
  7  8  2  0  0  0
  8  9  1  0  0  0
  8 14  1  0  0  0
  9 10  1  0  0  0
 10 11  2  0  0  0
 11 15  1  0  0  0
M  END
> <s_m_entry_id>
1020

> <s_m_entry_name>
Spot_Xplore.std.145

> <s_m_Source_Path>
/Volumes/cluster/ddu/2448959/Work/2023/01_Fragment_screening_lib/1_Library_Construction/Work/SpotX/Ph4_Hypo_JC2

> <s_m_Source_File>
SpotX.maegz

> <i_m_Source_File_Index>
154

> <s_m_job_name>
ligprep_SpotXplore

> <i_lp_mmshare_version>
52144

> <s_epik_input>
TiNDYyhbY0hdW2NIXTEpW2NIXWMoYzEyKXNbY0hdbjI=

> <s_epik_cmdline>
J2VwaWtfcHl0aG9uJywgJy1waHQnLCAnMS4wJywgJy1waCcsICc3LjAnLCAnLXRuJywgJzgnLCAnLW1hJywgJzIwMCcsICctaW1hZScsICc8aW5maWxlLm1hZT4nLCAnLW9tYWUnLCAnPG91dGZpbGUubWFlPic=

> <r_lp_tautomer_probability>
1

> <r_epik_Ionization_Penalty>
  0.0000

> <r_epik_Ionization_Penalty_Charging>
  0.0000

> <r_epik_Ionization_Penalty_Neutral>
  0.0000

> <r_epik_State_Penalty>
  0.0000

> <r_epik_Charging_Adjusted_Penalty>
0

> <i_epik_Tot_Q>
0

> <i_epik_Tot_abs_Q>
0

> <i_f3d_flags>
0

> <s_lp_Force_Field>
OPLS_2005

> <r_lp_Energy>
4.65197

> <b_lp_Chiralities_Consistent>
1

> <s_lp_Variant>
mol_ID_145-1

> <s_m_subgroup_title>
ligprep_SpotXplore-out1

> <s_m_subgroupid>
ligprep_SpotXplore-out1

> <b_m_subgroup_collapsed>
0

$$$$
mol_ID_146
                    3D
 Schrodinger Suite 2020-4.
 16 17  0  0  1  0            999 V2000
    0.0719    1.0923    2.5411 C   0  0  0  0  0  0
    1.2746    1.8202    2.6266 C   0  0  0  0  0  0
    2.5029    1.1710    2.4048 C   0  0  0  0  0  0
    2.5130   -0.2023    2.0994 C   0  0  0  0  0  0
    3.5381   -1.0901    1.8375 N   0  0  0  0  0  0
    3.0364   -2.3559    1.5883 C   0  0  0  0  0  0
    1.6694   -2.3193    1.6829 C   0  0  0  0  0  0
    1.3114   -0.9650    2.0061 C   0  0  0  0  0  0
    0.0922   -0.2838    2.2344 C   0  0  0  0  0  0
   -0.8711    1.5909    2.7114 H   0  0  0  0  0  0
    1.2540    2.8743    2.8618 H   0  0  0  0  0  0
    3.4292    1.7226    2.4687 H   0  0  0  0  0  0
    4.5245   -0.8738    1.8232 H   0  0  0  0  0  0
    3.6952   -3.1817    1.3634 H   0  0  0  0  0  0
    0.9851   -3.1430    1.5434 H   0  0  0  0  0  0
   -0.8386   -0.8279    2.1725 H   0  0  0  0  0  0
  1  9  1  0  0  0
  1  2  2  0  0  0
  1 10  1  0  0  0
  2  3  1  0  0  0
  2 11  1  0  0  0
  3  4  2  0  0  0
  3 12  1  0  0  0
  4  8  1  0  0  0
  4  5  1  0  0  0
  5  6  1  0  0  0
  5 13  1  0  0  0
  6  7  2  0  0  0
  6 14  1  0  0  0
  7  8  1  0  0  0
  7 15  1  0  0  0
  8  9  2  0  0  0
  9 16  1  0  0  0
M  END
> <s_m_entry_id>
1021

> <s_m_entry_name>
Spot_Xplore.std.146

> <s_m_Source_Path>
/Volumes/cluster/ddu/2448959/Work/2023/01_Fragment_screening_lib/1_Library_Construction/Work/SpotX/Ph4_Hypo_JC2

> <s_m_Source_File>
SpotX.maegz

> <i_m_Source_File_Index>
155

> <s_m_job_name>
ligprep_SpotXplore

> <i_lp_mmshare_version>
52144

> <s_epik_input>
W2NIXTFbY0hdW2NIXVtjSF1jKGMxMilbY0hdW2NIXVtuSF0y

> <s_epik_cmdline>
J2VwaWtfcHl0aG9uJywgJy1waHQnLCAnMS4wJywgJy1waCcsICc3LjAnLCAnLXRuJywgJzgnLCAnLW1hJywgJzIwMCcsICctaW1hZScsICc8aW5maWxlLm1hZT4nLCAnLW9tYWUnLCAnPG91dGZpbGUubWFlPic=

> <r_lp_tautomer_probability>
1

> <r_epik_Ionization_Penalty>
  0.0000

> <r_epik_Ionization_Penalty_Charging>
  0.0000

> <r_epik_Ionization_Penalty_Neutral>
  0.0000

> <r_epik_State_Penalty>
  0.0000

> <r_epik_Charging_Adjusted_Penalty>
0

> <i_epik_Tot_Q>
0

> <i_epik_Tot_abs_Q>
0

> <i_f3d_flags>
0

> <s_lp_Force_Field>
OPLS_2005

> <r_lp_Energy>
4.948811

> <b_lp_Chiralities_Consistent>
1

> <s_lp_Variant>
mol_ID_146-1

> <s_m_subgroup_title>
ligprep_SpotXplore-out1

> <s_m_subgroupid>
ligprep_SpotXplore-out1

> <b_m_subgroup_collapsed>
0

$$$$
mol_ID_147
                    3D
 Schrodinger Suite 2020-4.
 22 23  0  0  1  0            999 V2000
    0.0039    0.1156    0.0721 N   0  3  0  0  0  0
    1.4696   -0.0144    0.0027 C   0  0  1  0  0  0
    1.9012   -1.5033   -0.0389 C   0  0  0  0  0  0
    2.3212   -1.8262   -1.4934 C   0  0  0  0  0  0
    2.4540   -0.4721   -2.1344 C   0  0  0  0  0  0
    2.9804   -0.1833   -3.4058 C   0  0  0  0  0  0
    3.0273    1.1668   -3.8184 C   0  0  0  0  0  0
    2.5582    2.1954   -2.9666 C   0  0  0  0  0  0
    2.0333    1.8870   -1.6921 C   0  0  0  0  0  0
    1.9865    0.5369   -1.2997 C   0  0  0  0  0  0
   -0.2479    1.0929    0.0329 H   0  0  0  0  0  0
   -0.3317   -0.2846    0.9364 H   0  0  0  0  0  0
    1.9212    0.5071    0.8474 H   0  0  0  0  0  0
    2.7847   -1.6113    0.5919 H   0  0  0  0  0  0
    1.1546   -2.1939    0.3552 H   0  0  0  0  0  0
    3.2559   -2.3859   -1.5393 H   0  0  0  0  0  0
    1.5485   -2.3947   -2.0117 H   0  0  0  0  0  0
    3.3416   -0.9718   -4.0496 H   0  0  0  0  0  0
    3.4267    1.4163   -4.7905 H   0  0  0  0  0  0
    2.6027    3.2240   -3.2935 H   0  0  0  0  0  0
    1.6755    2.6685   -1.0379 H   0  0  0  0  0  0
   -0.4127   -0.3700   -0.7093 H   0  0  0  0  0  0
  1  2  1  0  0  0
  1 11  1  0  0  0
  1 12  1  0  0  0
  1 22  1  0  0  0
  2 10  1  0  0  0
  2  3  1  0  0  0
  2 13  1  0  0  0
  3  4  1  0  0  0
  3 14  1  0  0  0
  3 15  1  0  0  0
  4  5  1  0  0  0
  4 16  1  0  0  0
  4 17  1  0  0  0
  5 10  2  0  0  0
  5  6  1  0  0  0
  6  7  2  0  0  0
  6 18  1  0  0  0
  7  8  1  0  0  0
  7 19  1  0  0  0
  8  9  2  0  0  0
  8 20  1  0  0  0
  9 10  1  0  0  0
  9 21  1  0  0  0
M  CHG  1   1   1
M  END
> <s_m_entry_id>
1022

> <s_m_entry_name>
Spot_Xplore.std.147

> <s_m_Source_Path>
/Volumes/cluster/ddu/2448959/Work/2023/01_Fragment_screening_lib/1_Library_Construction/Work/SpotX/Ph4_Hypo_JC2

> <s_m_Source_File>
SpotX.maegz

> <i_m_Source_File_Index>
156

> <s_m_job_name>
ligprep_SpotXplore

> <i_lp_mmshare_version>
52144

> <s_epik_input>
W0NIMl0xW0NIMl1bQ0BIXShbTkgyXSljKGMxMilbY0hdW2NIXVtjSF1bY0hdMg==

> <s_epik_cmdline>
J2VwaWtfcHl0aG9uJywgJy1waHQnLCAnMS4wJywgJy1waCcsICc3LjAnLCAnLXRuJywgJzgnLCAnLW1hJywgJzIwMCcsICctaW1hZScsICc8aW5maWxlLm1hZT4nLCAnLW9tYWUnLCAnPG91dGZpbGUubWFlPic=

> <r_epik_Ionization_Penalty>
  0.0205

> <r_epik_Ionization_Penalty_Charging>
  0.0205

> <r_epik_Ionization_Penalty_Neutral>
  0.0000

> <r_epik_State_Penalty>
  0.0164

> <r_epik_Charging_Adjusted_Penalty>
0.0369678451601309

> <i_epik_Tot_Q>
1

> <i_epik_Tot_abs_Q>
1

> <i_f3d_flags>
0

> <s_lp_Force_Field>
OPLS_2005

> <r_lp_Energy>
17.101425

> <b_lp_Chiralities_Consistent>
1

> <s_lp_Variant>
mol_ID_147-1

> <s_m_subgroup_title>
ligprep_SpotXplore-out1

> <s_m_subgroupid>
ligprep_SpotXplore-out1

> <b_m_subgroup_collapsed>
0

$$$$
mol_ID_148
                    3D
 Schrodinger Suite 2020-4.
 22 23  0  0  1  0            999 V2000
   -0.0317    0.0340    0.0000 C   0  0  0  0  0  0
    1.4864   -0.0062   -0.0000 C   0  0  0  0  0  0
    2.2279    1.1921   -0.0000 C   0  0  0  0  0  0
    3.6359    1.1270   -0.0000 C   0  0  0  0  0  0
    4.4009    2.3119   -0.0000 C   0  0  0  0  0  0
    5.8060    2.2411   -0.0000 C   0  0  0  0  0  0
    6.4436    0.9872   -0.0000 C   0  0  0  0  0  0
    5.6768   -0.1941   -0.0000 C   0  0  0  0  0  0
    4.2661   -0.1474   -0.0000 C   0  0  0  0  0  0
    3.5468   -1.2930   -0.0000 N   0  0  0  0  0  0
    2.1985   -1.2275   -0.0000 C   0  0  0  0  0  0
    1.5288   -2.4503   -0.0000 N   0  0  0  0  0  0
   -0.4028    1.0594    0.0000 H   0  0  0  0  0  0
   -0.4251   -0.4672    0.8849 H   0  0  0  0  0  0
   -0.4251   -0.4672   -0.8849 H   0  0  0  0  0  0
    1.7245    2.1480    0.0000 H   0  0  0  0  0  0
    3.9151    3.2770   -0.0000 H   0  0  0  0  0  0
    6.3943    3.1471   -0.0000 H   0  0  0  0  0  0
    7.5222    0.9306   -0.0000 H   0  0  0  0  0  0
    6.1802   -1.1499   -0.0000 H   0  0  0  0  0  0
    0.5204   -2.5005   -0.0000 H   0  0  0  0  0  0
    2.0330   -3.3251   -0.0000 H   0  0  0  0  0  0
  1  2  1  0  0  0
  1 13  1  0  0  0
  1 14  1  0  0  0
  1 15  1  0  0  0
  2 11  1  0  0  0
  2  3  2  0  0  0
  3  4  1  0  0  0
  3 16  1  0  0  0
  4  9  2  0  0  0
  4  5  1  0  0  0
  5  6  2  0  0  0
  5 17  1  0  0  0
  6  7  1  0  0  0
  6 18  1  0  0  0
  7  8  2  0  0  0
  7 19  1  0  0  0
  8  9  1  0  0  0
  8 20  1  0  0  0
  9 10  1  0  0  0
 10 11  2  0  0  0
 11 12  1  0  0  0
 12 21  1  0  0  0
 12 22  1  0  0  0
M  END
> <s_m_entry_id>
1023

> <s_m_entry_name>
Spot_Xplore.std.148

> <s_m_Source_Path>
/Volumes/cluster/ddu/2448959/Work/2023/01_Fragment_screening_lib/1_Library_Construction/Work/SpotX/Ph4_Hypo_JC2

> <s_m_Source_File>
SpotX.maegz

> <i_m_Source_File_Index>
157

> <s_m_job_name>
ligprep_SpotXplore

> <i_lp_mmshare_version>
52144

> <s_epik_input>
W0NIM11jKFtjSF0xKWMoW05IMl0pbmMoYzEyKVtjSF1bY0hdW2NIXVtjSF0y

> <s_epik_cmdline>
J2VwaWtfcHl0aG9uJywgJy1waHQnLCAnMS4wJywgJy1waCcsICc3LjAnLCAnLXRuJywgJzgnLCAnLW1hJywgJzIwMCcsICctaW1hZScsICc8aW5maWxlLm1hZT4nLCAnLW9tYWUnLCAnPG91dGZpbGUubWFlPic=

> <r_epik_Ionization_Penalty>
  0.3464

> <r_epik_Ionization_Penalty_Charging>
  0.0000

> <r_epik_Ionization_Penalty_Neutral>
  0.3464

> <r_epik_State_Penalty>
  0.3424

> <r_epik_Charging_Adjusted_Penalty>
0.342351570592536

> <i_epik_Tot_Q>
0

> <i_epik_Tot_abs_Q>
0

> <i_f3d_flags>
0

> <s_lp_Force_Field>
OPLS_2005

> <r_lp_Energy>
7.592954

> <b_lp_Chiralities_Consistent>
1

> <s_lp_Variant>
mol_ID_148-1

> <s_m_subgroup_title>
ligprep_SpotXplore-out1

> <s_m_subgroupid>
ligprep_SpotXplore-out1

> <b_m_subgroup_collapsed>
0

$$$$
mol_ID_148
                    3D
 Schrodinger Suite 2020-4.
 23 24  0  0  1  0            999 V2000
   -0.0201    0.0097    0.0000 C   0  0  0  0  0  0
    1.4981   -0.0106    0.0000 C   0  0  0  0  0  0
    2.2208    1.2031    0.0000 C   0  0  0  0  0  0
    3.6316    1.1725    0.0000 C   0  0  0  0  0  0
    4.3848    2.3646    0.0000 C   0  0  0  0  0  0
    5.7930    2.3064   -0.0000 C   0  0  0  0  0  0
    6.4513    1.0601   -0.0000 C   0  0  0  0  0  0
    5.7045   -0.1348   -0.0000 C   0  0  0  0  0  0
    4.2970   -0.0784   -0.0000 C   0  0  0  0  0  0
    3.5661   -1.2147   -0.0000 N   0  3  0  0  0  0
    2.2149   -1.2309   -0.0000 C   0  0  0  0  0  0
    1.5864   -2.4759   -0.0000 N   0  0  0  0  0  0
   -0.4046    1.0302    0.0000 H   0  0  0  0  0  0
   -0.4073   -0.4965    0.8847 H   0  0  0  0  0  0
   -0.4073   -0.4965   -0.8847 H   0  0  0  0  0  0
    1.6983    2.1487    0.0000 H   0  0  0  0  0  0
    3.8895    3.3248    0.0000 H   0  0  0  0  0  0
    6.3705    3.2195   -0.0000 H   0  0  0  0  0  0
    7.5308    1.0213   -0.0000 H   0  0  0  0  0  0
    6.2164   -1.0862   -0.0000 H   0  0  0  0  0  0
    0.5796   -2.5574   -0.0000 H   0  0  0  0  0  0
    2.1149   -3.3363   -0.0000 H   0  0  0  0  0  0
    4.0624   -2.1056   -0.0000 H   0  0  0  0  0  0
  1  2  1  0  0  0
  1 13  1  0  0  0
  1 14  1  0  0  0
  1 15  1  0  0  0
  2 11  1  0  0  0
  2  3  2  0  0  0
  3  4  1  0  0  0
  3 16  1  0  0  0
  4  9  2  0  0  0
  4  5  1  0  0  0
  5  6  2  0  0  0
  5 17  1  0  0  0
  6  7  1  0  0  0
  6 18  1  0  0  0
  7  8  2  0  0  0
  7 19  1  0  0  0
  8  9  1  0  0  0
  8 20  1  0  0  0
  9 10  1  0  0  0
 10 11  2  0  0  0
 10 23  1  0  0  0
 11 12  1  0  0  0
 12 21  1  0  0  0
 12 22  1  0  0  0
M  CHG  1  10   1
M  END
> <s_m_entry_id>
1024

> <s_m_entry_name>
Spot_Xplore.std.148

> <s_m_Source_Path>
/Volumes/cluster/ddu/2448959/Work/2023/01_Fragment_screening_lib/1_Library_Construction/Work/SpotX/Ph4_Hypo_JC2

> <s_m_Source_File>
SpotX.maegz

> <i_m_Source_File_Index>
158

> <s_m_job_name>
ligprep_SpotXplore

> <i_lp_mmshare_version>
52144

> <s_epik_input>
W0NIM11jKFtjSF0xKWMoW05IMl0pbmMoYzEyKVtjSF1bY0hdW2NIXVtjSF0y

> <s_epik_cmdline>
J2VwaWtfcHl0aG9uJywgJy1waHQnLCAnMS4wJywgJy1waCcsICc3LjAnLCAnLXRuJywgJzgnLCAnLW1hJywgJzIwMCcsICctaW1hZScsICc8aW5maWxlLm1hZT4nLCAnLW9tYWUnLCAnPG91dGZpbGUubWFlPic=

> <r_epik_Ionization_Penalty>
  0.4828

> <r_epik_Ionization_Penalty_Charging>
  0.4828

> <r_epik_Ionization_Penalty_Neutral>
  0.0000

> <r_epik_State_Penalty>
  0.4879

> <r_epik_Charging_Adjusted_Penalty>
0.970738150326621

> <i_epik_Tot_Q>
1

> <i_epik_Tot_abs_Q>
1

> <i_f3d_flags>
0

> <s_lp_Force_Field>
OPLS_2005

> <r_lp_Energy>
12.185774

> <b_lp_Chiralities_Consistent>
1

> <s_lp_Variant>
mol_ID_148-2

> <s_m_subgroup_title>
ligprep_SpotXplore-out1

> <s_m_subgroupid>
ligprep_SpotXplore-out1

> <b_m_subgroup_collapsed>
0

$$$$
mol_ID_149
                    3D
 Schrodinger Suite 2020-4.
 33 34  0  0  1  0            999 V2000
   -0.4339    1.7842   -0.0466 C   0  0  0  0  0  0
   -0.0239   -0.0082   -0.0726 S   0  0  0  0  0  0
   -0.5452   -0.6135    1.1627 O   0  0  0  0  0  0
   -0.4326   -0.5509   -1.3774 O   0  0  0  0  0  0
    1.7633   -0.0363    0.0069 C   0  0  0  0  0  0
    2.4060   -0.0186    1.2604 C   0  0  0  0  0  0
    3.8131   -0.0112    1.3222 C   0  0  0  0  0  0
    4.5795   -0.0126    0.1332 C   0  0  0  0  0  0
    5.9813   -0.0038    0.1649 N   0  0  0  0  0  0
    6.5402    1.2484    0.6640 C   0  0  0  0  0  0
    8.0724    1.2605    0.5153 C   0  0  0  0  0  0
    8.6721    0.0535    1.1259 N   0  3  0  0  0  0
    8.0932   -1.2039    0.6037 C   0  0  0  0  0  0
    6.5610   -1.2070    0.7539 C   0  0  0  0  0  0
    3.9241   -0.0150   -1.1164 C   0  0  0  0  0  0
    2.5173   -0.0220   -1.1832 C   0  0  0  0  0  0
   -1.5154    1.9084   -0.0966 H   0  0  0  0  0  0
    0.0272    2.2767   -0.9025 H   0  0  0  0  0  0
   -0.0607    2.2308    0.8747 H   0  0  0  0  0  0
    1.8274   -0.0111    2.1723 H   0  0  0  0  0  0
    4.2994   -0.0006    2.2866 H   0  0  0  0  0  0
    6.1072    2.0895    0.1208 H   0  0  0  0  0  0
    6.2712    1.3735    1.7139 H   0  0  0  0  0  0
    8.3458    1.2932   -0.5402 H   0  0  0  0  0  0
    8.4947    2.1506    0.9819 H   0  0  0  0  0  0
    9.6676    0.0558    0.9556 H   0  0  0  0  0  0
    8.3668   -1.3076   -0.4472 H   0  0  0  0  0  0
    8.5310   -2.0510    1.1322 H   0  0  0  0  0  0
    6.2959   -1.2607    1.8107 H   0  0  0  0  0  0
    6.1417   -2.0922    0.2736 H   0  0  0  0  0  0
    4.5001   -0.0095   -2.0305 H   0  0  0  0  0  0
    2.0254   -0.0182   -2.1447 H   0  0  0  0  0  0
    8.5114    0.0879    2.1224 H   0  0  0  0  0  0
  1  2  1  0  0  0
  1 17  1  0  0  0
  1 18  1  0  0  0
  1 19  1  0  0  0
  2  3  2  0  0  0
  2  4  2  0  0  0
  2  5  1  0  0  0
  5 16  1  0  0  0
  5  6  2  0  0  0
  6  7  1  0  0  0
  6 20  1  0  0  0
  7  8  2  0  0  0
  7 21  1  0  0  0
  8  9  1  0  0  0
  8 15  1  0  0  0
  9 14  1  0  0  0
  9 10  1  0  0  0
 10 11  1  0  0  0
 10 22  1  0  0  0
 10 23  1  0  0  0
 11 12  1  0  0  0
 11 24  1  0  0  0
 11 25  1  0  0  0
 12 13  1  0  0  0
 12 26  1  0  0  0
 12 33  1  0  0  0
 13 14  1  0  0  0
 13 27  1  0  0  0
 13 28  1  0  0  0
 14 29  1  0  0  0
 14 30  1  0  0  0
 15 16  2  0  0  0
 15 31  1  0  0  0
 16 32  1  0  0  0
M  CHG  1  12   1
M  END
> <s_m_entry_id>
1025

> <s_m_entry_name>
Spot_Xplore.std.149

> <s_m_Source_Path>
/Volumes/cluster/ddu/2448959/Work/2023/01_Fragment_screening_lib/1_Library_Construction/Work/SpotX/Ph4_Hypo_JC2

> <s_m_Source_File>
SpotX.maegz

> <i_m_Source_File_Index>
159

> <s_m_job_name>
ligprep_SpotXplore

> <i_lp_mmshare_version>
52144

> <s_epik_input>
W0NIM11TKD1PKSg9TyljMVtjSF1bY0hdYyhbY0hdW2NIXTEpTjJbQ0gyXVtDSDJdW05IXVtDSDJdW0NIMl0y

> <s_epik_cmdline>
J2VwaWtfcHl0aG9uJywgJy1waHQnLCAnMS4wJywgJy1waCcsICc3LjAnLCAnLXRuJywgJzgnLCAnLW1hJywgJzIwMCcsICctaW1hZScsICc8aW5maWxlLm1hZT4nLCAnLW9tYWUnLCAnPG91dGZpbGUubWFlPic=

> <r_epik_Ionization_Penalty>
  0.0086

> <r_epik_Ionization_Penalty_Charging>
  0.0086

> <r_epik_Ionization_Penalty_Neutral>
  0.0000

> <r_epik_State_Penalty>
  0.0065

> <r_epik_Charging_Adjusted_Penalty>
0.0150377511596577

> <i_epik_Tot_Q>
1

> <i_epik_Tot_abs_Q>
1

> <i_f3d_flags>
0

> <s_lp_Force_Field>
OPLS_2005

> <r_lp_Energy>
28.551816

> <b_lp_Chiralities_Consistent>
1

> <s_lp_Variant>
mol_ID_149-1

> <s_m_subgroup_title>
ligprep_SpotXplore-out1

> <s_m_subgroupid>
ligprep_SpotXplore-out1

> <b_m_subgroup_collapsed>
0

$$$$
mol_ID_150
                    3D
 Schrodinger Suite 2020-4.
 22 22  0  0  1  0            999 V2000
   -0.2996    1.8785   -0.0000 C   0  0  0  0  0  0
   -0.1102    0.0505    0.0000 S   0  0  0  0  0  0
   -0.5881   -0.4902    1.2816 O   0  0  0  0  0  0
   -0.5881   -0.4902   -1.2817 O   0  0  0  0  0  0
    1.6118   -0.1489   -0.0000 N   0  0  0  0  0  0
    2.3502   -1.3361   -0.0000 C   0  0  0  0  0  0
    1.7225   -2.6000   -0.0000 C   0  0  0  0  0  0
    2.4960   -3.7769   -0.0000 C   0  0  0  0  0  0
    3.9084   -3.7103   -0.0000 C   0  0  0  0  0  0
    4.7347   -4.9683    0.0000 C   0  0  0  0  0  0
    5.9822   -4.8714    0.0000 O   0  0  0  0  0  0
    4.1509   -6.0751    0.0000 O   0  5  0  0  0  0
    4.5308   -2.4407   -0.0000 C   0  0  0  0  0  0
    3.7568   -1.2642   -0.0000 C   0  0  0  0  0  0
   -1.3596    2.1313    0.0000 H   0  0  0  0  0  0
    0.1704    2.2953   -0.8904 H   0  0  0  0  0  0
    0.1704    2.2953    0.8904 H   0  0  0  0  0  0
    2.1603    0.6983   -0.0000 H   0  0  0  0  0  0
    0.6460   -2.6829   -0.0000 H   0  0  0  0  0  0
    1.9900   -4.7313    0.0000 H   0  0  0  0  0  0
    5.6078   -2.3555   -0.0000 H   0  0  0  0  0  0
    4.2503   -0.3034   -0.0000 H   0  0  0  0  0  0
  1  2  1  0  0  0
  1 15  1  0  0  0
  1 16  1  0  0  0
  1 17  1  0  0  0
  2  3  2  0  0  0
  2  4  2  0  0  0
  2  5  1  0  0  0
  5  6  1  0  0  0
  5 18  1  0  0  0
  6 14  1  0  0  0
  6  7  2  0  0  0
  7  8  1  0  0  0
  7 19  1  0  0  0
  8  9  2  0  0  0
  8 20  1  0  0  0
  9 10  1  0  0  0
  9 13  1  0  0  0
 10 11  2  0  0  0
 10 12  1  0  0  0
 13 14  2  0  0  0
 13 21  1  0  0  0
 14 22  1  0  0  0
M  CHG  1  12  -1
M  END
> <s_m_entry_id>
1026

> <s_m_entry_name>
Spot_Xplore.std.150

> <s_m_Source_Path>
/Volumes/cluster/ddu/2448959/Work/2023/01_Fragment_screening_lib/1_Library_Construction/Work/SpotX/Ph4_Hypo_JC2

> <s_m_Source_File>
SpotX.maegz

> <i_m_Source_File_Index>
160

> <s_m_job_name>
ligprep_SpotXplore

> <i_lp_mmshare_version>
52144

> <s_epik_input>
W0NIM11TKD1PKSg9TylbTkhdYzFbY0hdW2NIXWMoQyg9TylbT0hdKVtjSF1bY0hdMQ==

> <s_epik_cmdline>
J2VwaWtfcHl0aG9uJywgJy1waHQnLCAnMS4wJywgJy1waCcsICc3LjAnLCAnLXRuJywgJzgnLCAnLW1hJywgJzIwMCcsICctaW1hZScsICc8aW5maWxlLm1hZT4nLCAnLW9tYWUnLCAnPG91dGZpbGUubWFlPic=

> <r_epik_Ionization_Penalty>
  0.0148

> <r_epik_Ionization_Penalty_Charging>
  0.0008

> <r_epik_Ionization_Penalty_Neutral>
  0.0140

> <r_epik_State_Penalty>
  0.0110

> <r_epik_Charging_Adjusted_Penalty>
0.011744890135919

> <i_epik_Tot_Q>
-1

> <i_epik_Tot_abs_Q>
1

> <i_f3d_flags>
0

> <s_lp_Force_Field>
OPLS_2005

> <r_lp_Energy>
0.925276

> <b_lp_Chiralities_Consistent>
1

> <s_lp_Variant>
mol_ID_150-1

> <s_m_subgroup_title>
ligprep_SpotXplore-out1

> <s_m_subgroupid>
ligprep_SpotXplore-out1

> <b_m_subgroup_collapsed>
0

$$$$
mol_ID_151
                    3D
 Schrodinger Suite 2020-4.
 18 18  0  0  1  0            999 V2000
   -4.2853   -0.0168   -0.0848 N   0  0  0  0  0  0
   -2.8922   -0.0029   -0.0444 C   0  0  0  0  0  0
   -2.1987    1.2247   -0.0377 C   0  0  0  0  0  0
   -0.7906    1.2391    0.0021 C   0  0  0  0  0  0
   -0.0771    0.0249    0.0371 C   0  0  0  0  0  0
    1.6832    0.0427    0.0916 S   0  0  0  0  0  0
    2.0780   -0.0055    1.8581 C   0  0  0  0  0  0
    1.6372    1.0943    2.4670 F   0  0  0  0  0  0
    3.3930   -0.1167    2.0383 F   0  0  0  0  0  0
   -0.7672   -1.2032    0.0321 C   0  0  0  0  0  0
   -2.1752   -1.2164   -0.0099 C   0  0  0  0  0  0
   -4.8178    0.8376   -0.1668 H   0  0  0  0  0  0
   -4.8011   -0.8832   -0.1464 H   0  0  0  0  0  0
   -2.7419    2.1582   -0.0628 H   0  0  0  0  0  0
   -0.2619    2.1812    0.0079 H   0  0  0  0  0  0
    1.6040   -0.8643    2.3335 H   0  0  0  0  0  0
   -0.2211   -2.1346    0.0599 H   0  0  0  0  0  0
   -2.7006   -2.1604   -0.0151 H   0  0  0  0  0  0
  1  2  1  0  0  0
  1 12  1  0  0  0
  1 13  1  0  0  0
  2 11  1  0  0  0
  2  3  2  0  0  0
  3  4  1  0  0  0
  3 14  1  0  0  0
  4  5  2  0  0  0
  4 15  1  0  0  0
  5  6  1  0  0  0
  5 10  1  0  0  0
  6  7  1  0  0  0
  7  8  1  0  0  0
  7  9  1  0  0  0
  7 16  1  0  0  0
 10 11  2  0  0  0
 10 17  1  0  0  0
 11 18  1  0  0  0
M  END
> <s_m_entry_id>
1027

> <s_m_entry_name>
Spot_Xplore.std.151

> <s_m_Source_Path>
/Volumes/cluster/ddu/2448959/Work/2023/01_Fragment_screening_lib/1_Library_Construction/Work/SpotX/Ph4_Hypo_JC2

> <s_m_Source_File>
SpotX.maegz

> <i_m_Source_File_Index>
161

> <s_m_job_name>
ligprep_SpotXplore

> <i_lp_mmshare_version>
52144

> <s_epik_input>
W05IMl1jMVtjSF1bY0hdYyhTW0NIXShGKUYpW2NIXVtjSF0x

> <s_epik_cmdline>
J2VwaWtfcHl0aG9uJywgJy1waHQnLCAnMS4wJywgJy1waCcsICc3LjAnLCAnLXRuJywgJzgnLCAnLW1hJywgJzIwMCcsICctaW1hZScsICc8aW5maWxlLm1hZT4nLCAnLW9tYWUnLCAnPG91dGZpbGUubWFlPic=

> <r_lp_tautomer_probability>
1

> <r_epik_Ionization_Penalty>
  0.0002

> <r_epik_Ionization_Penalty_Charging>
  0.0000

> <r_epik_Ionization_Penalty_Neutral>
  0.0002

> <r_epik_State_Penalty>
  0.0000

> <r_epik_Charging_Adjusted_Penalty>
0

> <i_epik_Tot_Q>
0

> <i_epik_Tot_abs_Q>
0

> <i_f3d_flags>
0

> <s_lp_Force_Field>
OPLS_2005

> <r_lp_Energy>
7.469601

> <b_lp_Chiralities_Consistent>
1

> <s_lp_Variant>
mol_ID_151-1

> <s_m_subgroup_title>
ligprep_SpotXplore-out1

> <s_m_subgroupid>
ligprep_SpotXplore-out1

> <b_m_subgroup_collapsed>
0

$$$$
mol_ID_152
                    3D
 Schrodinger Suite 2020-4.
 27 28  0  0  1  0            999 V2000
   -0.7171   -1.4073    0.0000 C   0  0  0  0  0  0
   -0.0012   -0.0532    0.0000 C   0  0  0  0  0  0
   -0.7064    0.9532    0.0000 O   0  0  0  0  0  0
    1.4700    0.0296   -0.0000 C   0  0  0  0  0  0
    2.3959   -1.4575   -0.0000 S   0  0  0  0  0  0
    3.8894   -0.5249   -0.0000 C   0  0  0  0  0  0
    5.2104   -1.1620   -0.0000 C   0  0  0  0  0  0
    5.3476   -2.5705   -0.0000 C   0  0  0  0  0  0
    6.6241   -3.1659   -0.0000 C   0  0  0  0  0  0
    7.7791   -2.3618   -0.0000 C   0  0  0  0  0  0
    9.0148   -2.9403   -0.0000 O   0  0  0  0  0  0
    7.6552   -0.9598   -0.0000 C   0  0  0  0  0  0
    6.3788   -0.3644   -0.0000 C   0  0  0  0  0  0
    3.6632    0.7910   -0.0000 N   0  0  0  0  0  0
    2.3063    1.1303   -0.0000 C   0  0  0  0  0  0
    1.9707    2.5954   -0.0000 C   0  0  0  0  0  0
   -0.0481   -2.2646    0.0000 H   0  0  0  0  0  0
   -1.3544   -1.4835   -0.8810 H   0  0  0  0  0  0
   -1.3544   -1.4835    0.8810 H   0  0  0  0  0  0
    4.4831   -3.2165   -0.0000 H   0  0  0  0  0  0
    6.7138   -4.2425   -0.0000 H   0  0  0  0  0  0
    9.7181   -2.3093   -0.0000 H   0  0  0  0  0  0
    8.5375   -0.3364   -0.0000 H   0  0  0  0  0  0
    6.3091    0.7135   -0.0000 H   0  0  0  0  0  0
    0.9025    2.7968   -0.0000 H   0  0  0  0  0  0
    2.3875    3.0889   -0.8783 H   0  0  0  0  0  0
    2.3875    3.0889    0.8783 H   0  0  0  0  0  0
  1  2  1  0  0  0
  1 17  1  0  0  0
  1 18  1  0  0  0
  1 19  1  0  0  0
  2  3  2  0  0  0
  2  4  1  0  0  0
  4 15  2  0  0  0
  4  5  1  0  0  0
  5  6  1  0  0  0
  6  7  1  0  0  0
  6 14  2  0  0  0
  7 13  1  0  0  0
  7  8  2  0  0  0
  8  9  1  0  0  0
  8 20  1  0  0  0
  9 10  2  0  0  0
  9 21  1  0  0  0
 10 11  1  0  0  0
 10 12  1  0  0  0
 11 22  1  0  0  0
 12 13  2  0  0  0
 12 23  1  0  0  0
 13 24  1  0  0  0
 14 15  1  0  0  0
 15 16  1  0  0  0
 16 25  1  0  0  0
 16 26  1  0  0  0
 16 27  1  0  0  0
M  END
> <s_m_entry_id>
1028

> <s_m_entry_name>
Spot_Xplore.std.152

> <s_m_Source_Path>
/Volumes/cluster/ddu/2448959/Work/2023/01_Fragment_screening_lib/1_Library_Construction/Work/SpotX/Ph4_Hypo_JC2

> <s_m_Source_File>
SpotX.maegz

> <i_m_Source_File_Index>
162

> <s_m_job_name>
ligprep_SpotXplore

> <i_lp_mmshare_version>
52144

> <s_epik_input>
W0NIM11DKD1PKWMxc2MobmMxW0NIM10pLWMyW2NIXVtjSF1jKFtPSF0pW2NIXVtjSF0y

> <s_epik_cmdline>
J2VwaWtfcHl0aG9uJywgJy1waHQnLCAnMS4wJywgJy1waCcsICc3LjAnLCAnLXRuJywgJzgnLCAnLW1hJywgJzIwMCcsICctaW1hZScsICc8aW5maWxlLm1hZT4nLCAnLW9tYWUnLCAnPG91dGZpbGUubWFlPic=

> <r_lp_tautomer_probability>
0.999949999997365

> <r_epik_Ionization_Penalty>
  0.0050

> <r_epik_Ionization_Penalty_Charging>
  0.0000

> <r_epik_Ionization_Penalty_Neutral>
  0.0050

> <r_epik_State_Penalty>
  0.0037

> <r_epik_Charging_Adjusted_Penalty>
0.00366449808436359

> <i_epik_Tot_Q>
0

> <i_epik_Tot_abs_Q>
0

> <i_f3d_flags>
0

> <s_lp_Force_Field>
OPLS_2005

> <r_lp_Energy>
10.38048

> <b_lp_Chiralities_Consistent>
1

> <s_lp_Variant>
mol_ID_152-1

> <s_m_subgroup_title>
ligprep_SpotXplore-out1

> <s_m_subgroupid>
ligprep_SpotXplore-out1

> <b_m_subgroup_collapsed>
0

$$$$
mol_ID_153
                    3D
 Schrodinger Suite 2020-4.
 27 28  0  0  1  0            999 V2000
   -2.1284   -0.8525    0.5507 C   0  0  0  0  0  0
   -0.7183   -0.7645    0.6710 O   0  0  0  0  0  0
    0.0343   -0.4519   -0.4012 C   0  0  0  0  0  0
   -0.4546   -0.2615   -1.5177 O   0  0  0  0  0  0
    1.5106   -0.4203   -0.1289 C   0  0  0  0  0  0
    2.0342   -0.1465    1.1162 C   0  0  0  0  0  0
    1.2400    0.2134    2.3675 C   0  0  0  0  0  0
    3.4185   -0.1280    1.3407 N   0  0  0  0  0  0
    4.2252   -0.3508    0.3590 C   0  0  0  0  0  0
    5.7414   -0.3475    0.4986 C   0  0  0  0  0  0
    6.6386   -1.2932   -0.2713 C   0  0  0  0  0  0
    6.6617    0.1849   -0.5794 C   0  0  0  0  0  0
    3.7668   -0.6149   -0.9266 N   0  0  0  0  0  0
    2.4562   -0.6699   -1.2451 C   0  0  0  0  0  0
    2.1333   -0.9259   -2.4050 O   0  0  0  0  0  0
   -2.5659   -1.1182    1.5130 H   0  0  0  0  0  0
   -2.4109   -1.6168   -0.1743 H   0  0  0  0  0  0
   -2.5516    0.1024    0.2365 H   0  0  0  0  0  0
    0.4919    0.9770    2.1526 H   0  0  0  0  0  0
    1.8890    0.6154    3.1468 H   0  0  0  0  0  0
    0.7466   -0.6672    2.7793 H   0  0  0  0  0  0
    6.0228   -0.1350    1.5286 H   0  0  0  0  0  0
    7.4956   -1.7082    0.2552 H   0  0  0  0  0  0
    6.1868   -1.9521   -1.0103 H   0  0  0  0  0  0
    6.2254    0.5064   -1.5232 H   0  0  0  0  0  0
    7.5339    0.7502   -0.2574 H   0  0  0  0  0  0
    4.4411   -0.7809   -1.6595 H   0  0  0  0  0  0
  1  2  1  0  0  0
  1 16  1  0  0  0
  1 17  1  0  0  0
  1 18  1  0  0  0
  2  3  1  0  0  0
  3  4  2  0  0  0
  3  5  1  0  0  0
  5 14  1  0  0  0
  5  6  2  0  0  0
  6  7  1  0  0  0
  6  8  1  0  0  0
  7 19  1  0  0  0
  7 20  1  0  0  0
  7 21  1  0  0  0
  8  9  2  0  0  0
  9 10  1  0  0  0
  9 13  1  0  0  0
 10 12  1  0  0  0
 10 11  1  0  0  0
 10 22  1  0  0  0
 11 12  1  0  0  0
 11 23  1  0  0  0
 11 24  1  0  0  0
 12 25  1  0  0  0
 12 26  1  0  0  0
 13 14  1  0  0  0
 13 27  1  0  0  0
 14 15  2  0  0  0
M  END
> <s_m_entry_id>
1029

> <s_m_entry_name>
Spot_Xplore.std.153

> <s_m_Source_Path>
/Volumes/cluster/ddu/2448959/Work/2023/01_Fragment_screening_lib/1_Library_Construction/Work/SpotX/Ph4_Hypo_JC2

> <s_m_Source_File>
SpotX.maegz

> <i_m_Source_File_Index>
163

> <s_m_job_name>
ligprep_SpotXplore

> <i_lp_mmshare_version>
52144

> <s_epik_input>
W0NIM11PQyg9TyljMWMoW0NIM10pbmMoW25IXWMxPU8pW0NIXTJbQ0gyXVtDSDJdMg==

> <s_epik_cmdline>
J2VwaWtfcHl0aG9uJywgJy1waHQnLCAnMS4wJywgJy1waCcsICc3LjAnLCAnLXRuJywgJzgnLCAnLW1hJywgJzIwMCcsICctaW1hZScsICc8aW5maWxlLm1hZT4nLCAnLW9tYWUnLCAnPG91dGZpbGUubWFlPic=

> <r_epik_Ionization_Penalty>
  0.0058

> <r_epik_Ionization_Penalty_Charging>
  0.0058

> <r_epik_Ionization_Penalty_Neutral>
  0.0000

> <r_epik_State_Penalty>
  0.0419

> <r_epik_Charging_Adjusted_Penalty>
0.0477125630372721

> <i_epik_Tot_Q>
0

> <i_epik_Tot_abs_Q>
0

> <i_f3d_flags>
0

> <s_lp_Force_Field>
OPLS_2005

> <r_lp_Energy>
27.151083

> <b_lp_Chiralities_Consistent>
1

> <s_lp_Variant>
mol_ID_153-1

> <s_epik_Chemistry_Notes>
This compound has an ester and may undergo hydrolysis at high or low pH.

> <s_m_subgroup_title>
ligprep_SpotXplore-out1

> <s_m_subgroupid>
ligprep_SpotXplore-out1

> <b_m_subgroup_collapsed>
0

$$$$
mol_ID_154
                    3D
 Schrodinger Suite 2020-4.
 30 31  0  0  1  0            999 V2000
   -0.7546    1.2039   -0.0346 C   0  0  0  0  0  0
   -0.0173    0.0015    0.1298 O   0  0  0  0  0  0
    1.3582    0.0717    0.0769 C   0  0  0  0  0  0
    2.0881    1.2663   -0.1422 C   0  0  0  0  0  0
    3.4960    1.2471   -0.1804 C   0  0  0  0  0  0
    4.2020    0.0365    0.0021 C   0  0  0  0  0  0
    5.6804   -0.0059   -0.0468 C   0  0  0  0  0  0
    6.3769    0.8478   -0.8282 C   0  0  0  0  0  0
    7.8952    0.9048   -0.9051 C   0  0  0  0  0  0
    8.5232   -0.2713   -0.2641 N   0  3  0  0  0  0
    7.9173   -0.6047    1.0386 C   0  0  0  0  0  0
    6.4351   -0.9756    0.8587 C   0  0  0  0  0  0
    3.4754   -1.1543    0.2174 C   0  0  0  0  0  0
    2.0683   -1.1325    0.2544 C   0  0  0  0  0  0
   -1.8200    0.9842    0.0341 H   0  0  0  0  0  0
   -0.5731    1.6522   -1.0123 H   0  0  0  0  0  0
   -0.5166    1.9279    0.7457 H   0  0  0  0  0  0
    1.5903    2.2137   -0.2826 H   0  0  0  0  0  0
    4.0222    2.1768   -0.3379 H   0  0  0  0  0  0
    5.8613    1.5622   -1.4530 H   0  0  0  0  0  0
    8.2095    0.9513   -1.9477 H   0  0  0  0  0  0
    8.2383    1.8174   -0.4167 H   0  0  0  0  0  0
    8.4080   -1.0681   -0.8743 H   0  0  0  0  0  0
    8.4625   -1.4316    1.4941 H   0  0  0  0  0  0
    8.0182    0.2520    1.7067 H   0  0  0  0  0  0
    5.9623   -0.9847    1.8415 H   0  0  0  0  0  0
    6.3387   -1.9823    0.4507 H   0  0  0  0  0  0
    3.9858   -2.0963    0.3503 H   0  0  0  0  0  0
    1.5268   -2.0526    0.4197 H   0  0  0  0  0  0
    9.5102   -0.0935   -0.1430 H   0  0  0  0  0  0
  1  2  1  0  0  0
  1 15  1  0  0  0
  1 16  1  0  0  0
  1 17  1  0  0  0
  2  3  1  0  0  0
  3 14  1  0  0  0
  3  4  2  0  0  0
  4  5  1  0  0  0
  4 18  1  0  0  0
  5  6  2  0  0  0
  5 19  1  0  0  0
  6  7  1  0  0  0
  6 13  1  0  0  0
  7 12  1  0  0  0
  7  8  2  0  0  0
  8  9  1  0  0  0
  8 20  1  0  0  0
  9 10  1  0  0  0
  9 21  1  0  0  0
  9 22  1  0  0  0
 10 11  1  0  0  0
 10 23  1  0  0  0
 10 30  1  0  0  0
 11 12  1  0  0  0
 11 24  1  0  0  0
 11 25  1  0  0  0
 12 26  1  0  0  0
 12 27  1  0  0  0
 13 14  2  0  0  0
 13 28  1  0  0  0
 14 29  1  0  0  0
M  CHG  1  10   1
M  END
> <s_m_entry_id>
1030

> <s_m_entry_name>
Spot_Xplore.std.154

> <s_m_Source_Path>
/Volumes/cluster/ddu/2448959/Work/2023/01_Fragment_screening_lib/1_Library_Construction/Work/SpotX/Ph4_Hypo_JC2

> <s_m_Source_File>
SpotX.maegz

> <i_m_Source_File_Index>
164

> <s_m_job_name>
ligprep_SpotXplore

> <i_lp_mmshare_version>
52144

> <s_epik_input>
W0NIM11PYzFbY0hdW2NIXWMoW2NIXVtjSF0xKUMyPVtDSF1bQ0gyXVtOSF1bQ0gyXVtDSDJdMg==

> <s_epik_cmdline>
J2VwaWtfcHl0aG9uJywgJy1waHQnLCAnMS4wJywgJy1waCcsICc3LjAnLCAnLXRuJywgJzgnLCAnLW1hJywgJzIwMCcsICctaW1hZScsICc8aW5maWxlLm1hZT4nLCAnLW9tYWUnLCAnPG91dGZpbGUubWFlPic=

> <r_epik_Ionization_Penalty>
  0.0033

> <r_epik_Ionization_Penalty_Charging>
  0.0033

> <r_epik_Ionization_Penalty_Neutral>
  0.0000

> <r_epik_State_Penalty>
  0.0024

> <r_epik_Charging_Adjusted_Penalty>
0.00570387242116854

> <i_epik_Tot_Q>
1

> <i_epik_Tot_abs_Q>
1

> <i_f3d_flags>
0

> <s_lp_Force_Field>
OPLS_2005

> <r_lp_Energy>
17.668072

> <b_lp_Chiralities_Consistent>
1

> <s_lp_Variant>
mol_ID_154-1

> <s_m_subgroup_title>
ligprep_SpotXplore-out1

> <s_m_subgroupid>
ligprep_SpotXplore-out1

> <b_m_subgroup_collapsed>
0

$$$$
mol_ID_155
                    3D
 Schrodinger Suite 2020-4.
 30 31  0  0  1  0            999 V2000
   -5.0075    1.0658   -0.1641 O   0  0  0  0  0  0
   -4.3962   -0.0262   -0.1507 C   0  0  0  0  0  0
   -4.9927   -1.1257   -0.1850 O   0  5  0  0  0  0
   -2.8924   -0.0168   -0.0911 C   0  0  0  0  0  0
   -2.1822    1.2056   -0.0519 C   0  0  0  0  0  0
   -0.7751    1.2151    0.0054 C   0  0  0  0  0  0
   -0.0577    0.0024    0.0258 C   0  0  0  0  0  0
    1.4598    0.0138    0.0908 C   0  0  0  0  0  0
    2.0053   -0.6371    1.2805 N   0  0  0  0  0  0
    3.4570   -0.7485    1.2005 C   0  0  0  0  0  0
    4.0498   -1.4301    2.4461 C   0  0  0  0  0  0
    3.6573   -0.7149    3.6134 O   0  0  0  0  0  0
    2.2430   -0.6243    3.7531 C   0  0  0  0  0  0
    1.6452    0.0612    2.5127 C   0  0  0  0  0  0
   -0.7581   -1.2200   -0.0164 C   0  0  0  0  0  0
   -2.1652   -1.2299   -0.0734 C   0  0  0  0  0  0
   -2.7090    2.1487   -0.0648 H   0  0  0  0  0  0
   -0.2503    2.1585    0.0369 H   0  0  0  0  0  0
    1.8225   -0.4966   -0.8024 H   0  0  0  0  0  0
    1.8225    1.0406    0.0257 H   0  0  0  0  0  0
    3.7361   -1.3152    0.3115 H   0  0  0  0  0  0
    3.8982    0.2433    1.0890 H   0  0  0  0  0  0
    3.7153   -2.4662    2.5167 H   0  0  0  0  0  0
    5.1382   -1.4475    2.3869 H   0  0  0  0  0  0
    1.8188   -1.6209    3.8854 H   0  0  0  0  0  0
    2.0082   -0.0538    4.6517 H   0  0  0  0  0  0
    1.9936    1.0942    2.4683 H   0  0  0  0  0  0
    0.5610    0.1027    2.6202 H   0  0  0  0  0  0
   -0.2167   -2.1545   -0.0017 H   0  0  0  0  0  0
   -2.6782   -2.1801   -0.1028 H   0  0  0  0  0  0
  1  2  2  0  0  0
  2  3  1  0  0  0
  2  4  1  0  0  0
  4 16  1  0  0  0
  4  5  2  0  0  0
  5  6  1  0  0  0
  5 17  1  0  0  0
  6  7  2  0  0  0
  6 18  1  0  0  0
  7  8  1  0  0  0
  7 15  1  0  0  0
  8  9  1  0  0  0
  8 19  1  0  0  0
  8 20  1  0  0  0
  9 14  1  0  0  0
  9 10  1  0  0  0
 10 11  1  0  0  0
 10 21  1  0  0  0
 10 22  1  0  0  0
 11 12  1  0  0  0
 11 23  1  0  0  0
 11 24  1  0  0  0
 12 13  1  0  0  0
 13 14  1  0  0  0
 13 25  1  0  0  0
 13 26  1  0  0  0
 14 27  1  0  0  0
 14 28  1  0  0  0
 15 16  2  0  0  0
 15 29  1  0  0  0
 16 30  1  0  0  0
M  CHG  1   3  -1
M  END
> <s_m_entry_id>
1031

> <s_m_entry_name>
Spot_Xplore.std.155

> <s_m_Source_Path>
/Volumes/cluster/ddu/2448959/Work/2023/01_Fragment_screening_lib/1_Library_Construction/Work/SpotX/Ph4_Hypo_JC2

> <s_m_Source_File>
SpotX.maegz

> <i_m_Source_File_Index>
165

> <s_m_job_name>
ligprep_SpotXplore

> <i_lp_mmshare_version>
52144

> <s_epik_input>
Tz1DKFtPSF0pYzFbY0hdW2NIXWMoW2NIXVtjSF0xKVtDSDJdTjJbQ0gyXVtDSDJdT1tDSDJdW0NIMl0y

> <s_epik_cmdline>
J2VwaWtfcHl0aG9uJywgJy1waHQnLCAnMS4wJywgJy1waCcsICc3LjAnLCAnLXRuJywgJzgnLCAnLW1hJywgJzIwMCcsICctaW1hZScsICc8aW5maWxlLm1hZT4nLCAnLW9tYWUnLCAnPG91dGZpbGUubWFlPic=

> <r_epik_Ionization_Penalty>
  0.2854

> <r_epik_Ionization_Penalty_Charging>
  0.0008

> <r_epik_Ionization_Penalty_Neutral>
  0.2846

> <r_epik_State_Penalty>
  0.2773

> <r_epik_Charging_Adjusted_Penalty>
0.278137979269517

> <i_epik_Tot_Q>
-1

> <i_epik_Tot_abs_Q>
1

> <i_f3d_flags>
0

> <s_lp_Force_Field>
OPLS_2005

> <r_lp_Energy>
22.507658

> <b_lp_Chiralities_Consistent>
1

> <s_lp_Variant>
mol_ID_155-1

> <s_m_subgroup_title>
ligprep_SpotXplore-out1

> <s_m_subgroupid>
ligprep_SpotXplore-out1

> <b_m_subgroup_collapsed>
0

$$$$
mol_ID_155
                    3D
 Schrodinger Suite 2020-4.
 31 32  0  0  1  0            999 V2000
   -5.0107    0.9444   -0.1184 O   0  0  0  0  0  0
   -4.3805   -0.1132    0.1050 C   0  0  0  0  0  0
   -4.9570   -1.1970    0.3470 O   0  5  0  0  0  0
   -2.8762   -0.0811    0.0794 C   0  0  0  0  0  0
   -2.1873    1.1247   -0.1883 C   0  0  0  0  0  0
   -0.7799    1.1537   -0.2179 C   0  0  0  0  0  0
   -0.0411   -0.0237    0.0174 C   0  0  0  0  0  0
    1.4758   -0.0013   -0.0286 C   0  0  0  0  0  0
    2.0039   -0.5728   -1.2916 N   0  3  0  0  0  0
    1.6951    0.2426   -2.4927 C   0  0  0  0  0  0
    2.2467   -0.4342   -3.7587 C   0  0  0  0  0  0
    3.6456   -0.6484   -3.6178 O   0  0  0  0  0  0
    3.9449   -1.5058   -2.5234 C   0  0  0  0  0  0
    3.4560   -0.8593   -1.2165 C   0  0  0  0  0  0
   -0.7204   -1.2274    0.2921 C   0  0  0  0  0  0
   -2.1278   -1.2563    0.3219 C   0  0  0  0  0  0
   -2.7313    2.0392   -0.3756 H   0  0  0  0  0  0
   -0.2713    2.0831   -0.4287 H   0  0  0  0  0  0
    1.8466    1.0161    0.1072 H   0  0  0  0  0  0
    1.8439   -0.5822    0.8182 H   0  0  0  0  0  0
    0.6179    0.3722   -2.5978 H   0  0  0  0  0  0
    2.1285    1.2377   -2.3818 H   0  0  0  0  0  0
    1.7384   -1.3815   -3.9467 H   0  0  0  0  0  0
    2.0722    0.1989   -4.6288 H   0  0  0  0  0  0
    3.4830   -2.4832   -2.6731 H   0  0  0  0  0  0
    5.0225   -1.6655   -2.4831 H   0  0  0  0  0  0
    4.0025    0.0671   -1.0315 H   0  0  0  0  0  0
    3.6599   -1.5258   -0.3776 H   0  0  0  0  0  0
   -0.1646   -2.1350    0.4769 H   0  0  0  0  0  0
   -2.6258   -2.1921    0.5310 H   0  0  0  0  0  0
    1.5425   -1.4627   -1.4171 H   0  0  0  0  0  0
  1  2  2  0  0  0
  2  3  1  0  0  0
  2  4  1  0  0  0
  4 16  1  0  0  0
  4  5  2  0  0  0
  5  6  1  0  0  0
  5 17  1  0  0  0
  6  7  2  0  0  0
  6 18  1  0  0  0
  7  8  1  0  0  0
  7 15  1  0  0  0
  8  9  1  0  0  0
  8 19  1  0  0  0
  8 20  1  0  0  0
  9 14  1  0  0  0
  9 10  1  0  0  0
  9 31  1  0  0  0
 10 11  1  0  0  0
 10 21  1  0  0  0
 10 22  1  0  0  0
 11 12  1  0  0  0
 11 23  1  0  0  0
 11 24  1  0  0  0
 12 13  1  0  0  0
 13 14  1  0  0  0
 13 25  1  0  0  0
 13 26  1  0  0  0
 14 27  1  0  0  0
 14 28  1  0  0  0
 15 16  2  0  0  0
 15 29  1  0  0  0
 16 30  1  0  0  0
M  CHG  2   3  -1   9   1
M  END
> <s_m_entry_id>
1032

> <s_m_entry_name>
Spot_Xplore.std.155

> <s_m_Source_Path>
/Volumes/cluster/ddu/2448959/Work/2023/01_Fragment_screening_lib/1_Library_Construction/Work/SpotX/Ph4_Hypo_JC2

> <s_m_Source_File>
SpotX.maegz

> <i_m_Source_File_Index>
166

> <s_m_job_name>
ligprep_SpotXplore

> <i_lp_mmshare_version>
52144

> <s_epik_input>
Tz1DKFtPSF0pYzFbY0hdW2NIXWMoW2NIXVtjSF0xKVtDSDJdTjJbQ0gyXVtDSDJdT1tDSDJdW0NIMl0y

> <s_epik_cmdline>
J2VwaWtfcHl0aG9uJywgJy1waHQnLCAnMS4wJywgJy1waCcsICc3LjAnLCAnLXRuJywgJzgnLCAnLW1hJywgJzIwMCcsICctaW1hZScsICc8aW5maWxlLm1hZT4nLCAnLW9tYWUnLCAnPG91dGZpbGUubWFlPic=

> <r_epik_Ionization_Penalty>
  0.5714

> <r_epik_Ionization_Penalty_Charging>
  0.5714

> <r_epik_Ionization_Penalty_Neutral>
  0.0000

> <r_epik_State_Penalty>
  0.5830

> <r_epik_Charging_Adjusted_Penalty>
1.15446784036962

> <i_epik_Tot_Q>
0

> <i_epik_Tot_abs_Q>
2

> <i_f3d_flags>
0

> <s_lp_Force_Field>
OPLS_2005

> <r_lp_Energy>
13.040631

> <b_lp_Chiralities_Consistent>
1

> <s_lp_Variant>
mol_ID_155-2

> <s_m_subgroup_title>
ligprep_SpotXplore-out1

> <s_m_subgroupid>
ligprep_SpotXplore-out1

> <b_m_subgroup_collapsed>
0

$$$$
mol_ID_156
                    3D
 Schrodinger Suite 2020-4.
 16 17  0  0  1  0            999 V2000
   -3.5992    3.2138    0.0530 C   0  0  0  0  0  0
   -3.5494    1.8091    0.0445 C   0  0  0  0  0  0
   -2.3944    1.1135    0.0297 N   0  0  0  0  0  0
   -1.2227    1.7905    0.0226 C   0  0  0  0  0  0
    0.0006    1.0862    0.0071 C   0  0  0  0  0  0
    1.2160    1.7945   -0.0002 C   0  0  0  0  0  0
    1.1663    3.1992    0.0083 C   0  0  0  0  0  0
    0.0112    3.8949    0.0231 N   0  0  0  0  0  0
   -1.1604    3.2179    0.0302 C   0  0  0  0  0  0
   -2.3839    3.9222    0.0457 C   0  0  0  0  0  0
   -4.5452    3.7347    0.0648 H   0  0  0  0  0  0
   -4.4600    1.2284    0.0497 H   0  0  0  0  0  0
    0.0078    0.0058    0.0009 H   0  0  0  0  0  0
    2.1619    1.2736   -0.0120 H   0  0  0  0  0  0
    2.0770    3.7799    0.0031 H   0  0  0  0  0  0
   -2.3911    5.0025    0.0519 H   0  0  0  0  0  0
  1 10  1  0  0  0
  1  2  2  0  0  0
  1 11  1  0  0  0
  2  3  1  0  0  0
  2 12  1  0  0  0
  3  4  2  0  0  0
  4  9  1  0  0  0
  4  5  1  0  0  0
  5  6  2  0  0  0
  5 13  1  0  0  0
  6  7  1  0  0  0
  6 14  1  0  0  0
  7  8  2  0  0  0
  7 15  1  0  0  0
  8  9  1  0  0  0
  9 10  2  0  0  0
 10 16  1  0  0  0
M  END
> <s_m_entry_id>
1033

> <s_m_entry_name>
Spot_Xplore.std.156

> <s_m_Source_Path>
/Volumes/cluster/ddu/2448959/Work/2023/01_Fragment_screening_lib/1_Library_Construction/Work/SpotX/Ph4_Hypo_JC2

> <s_m_Source_File>
SpotX.maegz

> <i_m_Source_File_Index>
167

> <s_m_job_name>
ligprep_SpotXplore

> <i_lp_mmshare_version>
52144

> <s_epik_input>
bjFbY0hdW2NIXVtjSF1jKGMxMiluW2NIXVtjSF1bY0hdMg==

> <s_epik_cmdline>
J2VwaWtfcHl0aG9uJywgJy1waHQnLCAnMS4wJywgJy1waCcsICc3LjAnLCAnLXRuJywgJzgnLCAnLW1hJywgJzIwMCcsICctaW1hZScsICc8aW5maWxlLm1hZT4nLCAnLW9tYWUnLCAnPG91dGZpbGUubWFlPic=

> <r_lp_tautomer_probability>
1

> <r_epik_Ionization_Penalty>
  0.0001

> <r_epik_Ionization_Penalty_Charging>
  0.0000

> <r_epik_Ionization_Penalty_Neutral>
  0.0001

> <r_epik_State_Penalty>
  0.0000

> <r_epik_Charging_Adjusted_Penalty>
0

> <i_epik_Tot_Q>
0

> <i_epik_Tot_abs_Q>
0

> <i_f3d_flags>
0

> <s_lp_Force_Field>
OPLS_2005

> <r_lp_Energy>
11.485604

> <b_lp_Chiralities_Consistent>
1

> <s_lp_Variant>
mol_ID_156-1

> <s_m_subgroup_title>
ligprep_SpotXplore-out1

> <s_m_subgroupid>
ligprep_SpotXplore-out1

> <b_m_subgroup_collapsed>
0

$$$$
mol_ID_157
                    3D
 Schrodinger Suite 2020-4.
 26 27  0  0  1  0            999 V2000
   -0.1468   -2.2063    0.4912 O   0  0  0  0  0  0
   -0.6700   -1.1636    0.0970 C   0  0  0  0  0  0
   -2.2017   -1.1487   -0.0375 C   0  0  0  0  0  0
   -2.7739    0.2020   -0.1862 N   0  3  0  0  0  0
   -2.0602    1.0014   -1.1915 C   0  0  0  0  0  0
   -0.5899    1.1662   -0.7752 C   0  0  0  0  0  0
    0.0442   -0.0542   -0.2377 N   0  0  0  0  0  0
    1.4614   -0.0216   -0.0720 C   0  0  0  0  0  0
    2.2983    0.2818   -1.1702 C   0  0  0  0  0  0
    3.6965    0.3298   -1.0077 C   0  0  0  0  0  0
    4.2698    0.0795    0.2532 C   0  0  0  0  0  0
    3.4443   -0.2185    1.3535 C   0  0  0  0  0  0
    2.0460   -0.2670    1.1934 C   0  0  0  0  0  0
   -2.4753   -1.7459   -0.9082 H   0  0  0  0  0  0
   -2.6514   -1.6280    0.8325 H   0  0  0  0  0  0
   -3.7472    0.1226   -0.4446 H   0  0  0  0  0  0
   -2.1278    0.5006   -2.1585 H   0  0  0  0  0  0
   -2.5404    1.9742   -1.2998 H   0  0  0  0  0  0
   -0.0303    1.5615   -1.6226 H   0  0  0  0  0  0
   -0.5284    1.9254    0.0058 H   0  0  0  0  0  0
    1.8778    0.4670   -2.1475 H   0  0  0  0  0  0
    4.3303    0.5571   -1.8522 H   0  0  0  0  0  0
    5.3423    0.1166    0.3765 H   0  0  0  0  0  0
    3.8834   -0.4086    2.3218 H   0  0  0  0  0  0
    1.4245   -0.4893    2.0488 H   0  0  0  0  0  0
   -2.7085    0.6784    0.7022 H   0  0  0  0  0  0
  1  2  2  0  0  0
  2  7  1  0  0  0
  2  3  1  0  0  0
  3  4  1  0  0  0
  3 14  1  0  0  0
  3 15  1  0  0  0
  4  5  1  0  0  0
  4 16  1  0  0  0
  4 26  1  0  0  0
  5  6  1  0  0  0
  5 17  1  0  0  0
  5 18  1  0  0  0
  6  7  1  0  0  0
  6 19  1  0  0  0
  6 20  1  0  0  0
  7  8  1  0  0  0
  8 13  1  0  0  0
  8  9  2  0  0  0
  9 10  1  0  0  0
  9 21  1  0  0  0
 10 11  2  0  0  0
 10 22  1  0  0  0
 11 12  1  0  0  0
 11 23  1  0  0  0
 12 13  2  0  0  0
 12 24  1  0  0  0
 13 25  1  0  0  0
M  CHG  1   4   1
M  END
> <s_m_entry_id>
1034

> <s_m_entry_name>
Spot_Xplore.std.157

> <s_m_Source_Path>
/Volumes/cluster/ddu/2448959/Work/2023/01_Fragment_screening_lib/1_Library_Construction/Work/SpotX/Ph4_Hypo_JC2

> <s_m_Source_File>
SpotX.maegz

> <i_m_Source_File_Index>
168

> <s_m_job_name>
ligprep_SpotXplore

> <i_lp_mmshare_version>
52144

> <s_epik_input>
Tz1DMVtDSDJdW05IXVtDSDJdW0NIMl1OMWMyW2NIXVtjSF1bY0hdW2NIXVtjSF0y

> <s_epik_cmdline>
J2VwaWtfcHl0aG9uJywgJy1waHQnLCAnMS4wJywgJy1waCcsICc3LjAnLCAnLXRuJywgJzgnLCAnLW1hJywgJzIwMCcsICctaW1hZScsICc8aW5maWxlLm1hZT4nLCAnLW9tYWUnLCAnPG91dGZpbGUubWFlPic=

> <r_epik_Ionization_Penalty>
  0.3474

> <r_epik_Ionization_Penalty_Charging>
  0.3474

> <r_epik_Ionization_Penalty_Neutral>
  0.0000

> <r_epik_State_Penalty>
  0.3435

> <r_epik_Charging_Adjusted_Penalty>
0.690893275134965

> <i_epik_Tot_Q>
1

> <i_epik_Tot_abs_Q>
1

> <i_f3d_flags>
0

> <s_lp_Force_Field>
OPLS_2005

> <r_lp_Energy>
35.037958

> <b_lp_Chiralities_Consistent>
1

> <s_lp_Variant>
mol_ID_157-1

> <s_m_subgroup_title>
ligprep_SpotXplore-out1

> <s_m_subgroupid>
ligprep_SpotXplore-out1

> <b_m_subgroup_collapsed>
0

$$$$
mol_ID_157
                    3D
 Schrodinger Suite 2020-4.
 25 26  0  0  1  0            999 V2000
   -0.2067   -2.1569   -0.6338 O   0  0  0  0  0  0
   -0.7310   -1.1064   -0.2614 C   0  0  0  0  0  0
   -2.2688   -1.0719   -0.1590 C   0  0  0  0  0  0
   -2.8685    0.2513    0.0717 N   0  0  1  0  0  0
   -2.1163    0.9699    1.0849 C   0  0  0  0  0  0
   -0.6965    1.2194    0.5534 C   0  0  0  0  0  0
   -0.0194   -0.0043    0.0933 N   0  0  0  0  0  0
    1.4047    0.0228    0.0035 C   0  0  0  0  0  0
    2.0588   -0.2653   -1.2180 C   0  0  0  0  0  0
    3.4642   -0.2237   -1.3002 C   0  0  0  0  0  0
    4.2276    0.1079   -0.1649 C   0  0  0  0  0  0
    3.5845    0.4002    1.0527 C   0  0  0  0  0  0
    2.1792    0.3608    1.1366 C   0  0  0  0  0  0
   -2.7000   -1.5001   -1.0643 H   0  0  0  0  0  0
   -2.5566   -1.7305    0.6615 H   0  0  0  0  0  0
   -2.8671    0.7990   -0.7771 H   0  0  0  0  0  0
   -2.6130    1.9168    1.2971 H   0  0  0  0  0  0
   -2.0961    0.4007    2.0159 H   0  0  0  0  0  0
   -0.7384    1.9123   -0.2885 H   0  0  0  0  0  0
   -0.1178    1.7227    1.3275 H   0  0  0  0  0  0
    1.4855   -0.5144   -2.0991 H   0  0  0  0  0  0
    3.9564   -0.4459   -2.2355 H   0  0  0  0  0  0
    5.3053    0.1381   -0.2283 H   0  0  0  0  0  0
    4.1698    0.6536    1.9244 H   0  0  0  0  0  0
    1.7029    0.5787    2.0811 H   0  0  0  0  0  0
  1  2  2  0  0  0
  2  7  1  0  0  0
  2  3  1  0  0  0
  3  4  1  0  0  0
  3 14  1  0  0  0
  3 15  1  0  0  0
  4  5  1  0  0  0
  4 16  1  0  0  0
  5  6  1  0  0  0
  5 17  1  0  0  0
  5 18  1  0  0  0
  6  7  1  0  0  0
  6 19  1  0  0  0
  6 20  1  0  0  0
  7  8  1  0  0  0
  8 13  1  0  0  0
  8  9  2  0  0  0
  9 10  1  0  0  0
  9 21  1  0  0  0
 10 11  2  0  0  0
 10 22  1  0  0  0
 11 12  1  0  0  0
 11 23  1  0  0  0
 12 13  2  0  0  0
 12 24  1  0  0  0
 13 25  1  0  0  0
M  END
> <s_m_entry_id>
1035

> <s_m_entry_name>
Spot_Xplore.std.157

> <s_m_Source_Path>
/Volumes/cluster/ddu/2448959/Work/2023/01_Fragment_screening_lib/1_Library_Construction/Work/SpotX/Ph4_Hypo_JC2

> <s_m_Source_File>
SpotX.maegz

> <i_m_Source_File_Index>
169

> <s_m_job_name>
ligprep_SpotXplore

> <i_lp_mmshare_version>
52144

> <s_epik_input>
Tz1DMVtDSDJdW05IXVtDSDJdW0NIMl1OMWMyW2NIXVtjSF1bY0hdW2NIXVtjSF0y

> <s_epik_cmdline>
J2VwaWtfcHl0aG9uJywgJy1waHQnLCAnMS4wJywgJy1waCcsICc3LjAnLCAnLXRuJywgJzgnLCAnLW1hJywgJzIwMCcsICctaW1hZScsICc8aW5maWxlLm1hZT4nLCAnLW9tYWUnLCAnPG91dGZpbGUubWFlPic=

> <r_epik_Ionization_Penalty>
  0.4815

> <r_epik_Ionization_Penalty_Charging>
  0.0000

> <r_epik_Ionization_Penalty_Neutral>
  0.4815

> <r_epik_State_Penalty>
  0.4865

> <r_epik_Charging_Adjusted_Penalty>
0.486513601167428

> <i_epik_Tot_Q>
0

> <i_epik_Tot_abs_Q>
0

> <i_f3d_flags>
0

> <s_lp_Force_Field>
OPLS_2005

> <r_lp_Energy>
31.300126

> <b_lp_Chiralities_Consistent>
1

> <s_lp_Variant>
mol_ID_157-2

> <s_m_subgroup_title>
ligprep_SpotXplore-out1

> <s_m_subgroupid>
ligprep_SpotXplore-out1

> <b_m_subgroup_collapsed>
0

$$$$
mol_ID_158
                    3D
 Schrodinger Suite 2020-4.
 21 22  0  0  1  0            999 V2000
   -2.8271   -0.0017   -0.0022 C   0  0  0  0  0  0
   -2.1191   -1.2154    0.0579 C   0  0  0  0  0  0
   -0.7106   -1.2109    0.0597 C   0  0  0  0  0  0
    0.0148    0.0023    0.0025 C   0  0  0  0  0  0
    1.4924    0.0045    0.0033 C   0  0  0  0  0  0
    2.2293    1.0185    0.6578 C   0  0  0  0  0  0
    3.6375    0.9767    0.6298 C   0  0  0  0  0  0
    4.3383    0.0090    0.0042 N   0  0  0  0  0  0
    3.6409   -0.9611   -0.6218 C   0  0  0  0  0  0
    2.2329   -1.0074   -0.6507 C   0  0  0  0  0  0
   -0.7138    1.2134   -0.0560 C   0  0  0  0  0  0
   -2.1223    1.2141   -0.0594 C   0  0  0  0  0  0
   -3.9072   -0.0033   -0.0043 H   0  0  0  0  0  0
   -2.6560   -2.1514    0.1037 H   0  0  0  0  0  0
   -0.1878   -2.1544    0.1136 H   0  0  0  0  0  0
    1.7295    1.8176    1.1850 H   0  0  0  0  0  0
    4.2160    1.7411    1.1269 H   0  0  0  0  0  0
    4.2219   -1.7245   -1.1179 H   0  0  0  0  0  0
    1.7356   -1.8082   -1.1778 H   0  0  0  0  0  0
   -0.1936    2.1584   -0.1085 H   0  0  0  0  0  0
   -2.6617    2.1485   -0.1077 H   0  0  0  0  0  0
  1 12  1  0  0  0
  1  2  2  0  0  0
  1 13  1  0  0  0
  2  3  1  0  0  0
  2 14  1  0  0  0
  3  4  2  0  0  0
  3 15  1  0  0  0
  4  5  1  0  0  0
  4 11  1  0  0  0
  5 10  1  0  0  0
  5  6  2  0  0  0
  6  7  1  0  0  0
  6 16  1  0  0  0
  7  8  2  0  0  0
  7 17  1  0  0  0
  8  9  1  0  0  0
  9 10  2  0  0  0
  9 18  1  0  0  0
 10 19  1  0  0  0
 11 12  2  0  0  0
 11 20  1  0  0  0
 12 21  1  0  0  0
M  END
> <s_m_entry_id>
1036

> <s_m_entry_name>
Spot_Xplore.std.158

> <s_m_Source_Path>
/Volumes/cluster/ddu/2448959/Work/2023/01_Fragment_screening_lib/1_Library_Construction/Work/SpotX/Ph4_Hypo_JC2

> <s_m_Source_File>
SpotX.maegz

> <i_m_Source_File_Index>
170

> <s_m_job_name>
ligprep_SpotXplore

> <i_lp_mmshare_version>
52144

> <s_epik_input>
W2NIXTFbY0hdW2NIXVtjSF1bY0hdYzEtYzJbY0hdW2NIXW5bY0hdW2NIXTI=

> <s_epik_cmdline>
J2VwaWtfcHl0aG9uJywgJy1waHQnLCAnMS4wJywgJy1waCcsICc3LjAnLCAnLXRuJywgJzgnLCAnLW1hJywgJzIwMCcsICctaW1hZScsICc8aW5maWxlLm1hZT4nLCAnLW9tYWUnLCAnPG91dGZpbGUubWFlPic=

> <r_epik_Ionization_Penalty>
  0.0054

> <r_epik_Ionization_Penalty_Charging>
  0.0000

> <r_epik_Ionization_Penalty_Neutral>
  0.0054

> <r_epik_State_Penalty>
  0.0040

> <r_epik_Charging_Adjusted_Penalty>
0.00395995145310839

> <i_epik_Tot_Q>
0

> <i_epik_Tot_abs_Q>
0

> <i_f3d_flags>
0

> <s_lp_Force_Field>
OPLS_2005

> <r_lp_Energy>
9.187877

> <b_lp_Chiralities_Consistent>
1

> <s_lp_Variant>
mol_ID_158-1

> <s_m_subgroup_title>
ligprep_SpotXplore-out1

> <s_m_subgroupid>
ligprep_SpotXplore-out1

> <b_m_subgroup_collapsed>
0

$$$$
mol_ID_159
                    3D
 Schrodinger Suite 2020-4.
 32 33  0  0  1  0            999 V2000
   -0.7598    1.0895   -0.6905 C   0  0  0  0  0  0
   -0.0919   -0.0212    0.1278 C   0  0  0  0  0  0
    1.4154    0.1390    0.1909 C   0  0  0  0  0  0
    2.2332   -0.4639   -0.7887 C   0  0  0  0  0  0
    3.6328   -0.3155   -0.7331 C   0  0  0  0  0  0
    4.2139    0.4267    0.3132 C   0  0  0  0  0  0
    5.6448    0.5925    0.3247 N   0  0  0  0  0  0
    6.4386    0.2982    1.3791 C   0  0  0  0  0  0
    7.7683    0.5151    1.3178 N   0  3  0  0  0  0
    8.7722    0.2579    2.3568 C   0  0  0  0  0  0
    8.3992   -0.9421    3.2245 C   0  0  0  0  0  0
    7.1161   -0.6674    4.0008 C   0  0  0  0  0  0
    5.7171   -0.4574    2.8734 S   0  0  0  0  0  0
    3.4026    1.0535    1.2822 C   0  0  0  0  0  0
    2.0037    0.9011    1.2228 C   0  0  0  0  0  0
   -1.8412    0.9545   -0.7187 H   0  0  0  0  0  0
   -0.3983    1.0919   -1.7191 H   0  0  0  0  0  0
   -0.5583    2.0711   -0.2606 H   0  0  0  0  0  0
   -0.4947   -0.0279    1.1413 H   0  0  0  0  0  0
   -0.3329   -0.9934   -0.3036 H   0  0  0  0  0  0
    1.7881   -1.0392   -1.5876 H   0  0  0  0  0  0
    4.2522   -0.7763   -1.4889 H   0  0  0  0  0  0
    6.1326    0.6657   -0.5566 H   0  0  0  0  0  0
    9.7338    0.0863    1.8730 H   0  0  0  0  0  0
    8.8813    1.1516    2.9720 H   0  0  0  0  0  0
    8.2873   -1.8369    2.6105 H   0  0  0  0  0  0
    9.2101   -1.1470    3.9240 H   0  0  0  0  0  0
    6.8961   -1.4863    4.6862 H   0  0  0  0  0  0
    7.2238    0.2347    4.6037 H   0  0  0  0  0  0
    3.8438    1.6522    2.0659 H   0  0  0  0  0  0
    1.3825    1.3760    1.9683 H   0  0  0  0  0  0
    8.1277    0.9289    0.4694 H   0  0  0  0  0  0
  1  2  1  0  0  0
  1 16  1  0  0  0
  1 17  1  0  0  0
  1 18  1  0  0  0
  2  3  1  0  0  0
  2 19  1  0  0  0
  2 20  1  0  0  0
  3 15  1  0  0  0
  3  4  2  0  0  0
  4  5  1  0  0  0
  4 21  1  0  0  0
  5  6  2  0  0  0
  5 22  1  0  0  0
  6  7  1  0  0  0
  6 14  1  0  0  0
  7  8  1  0  0  0
  7 23  1  0  0  0
  8 13  1  0  0  0
  8  9  2  0  0  0
  9 10  1  0  0  0
  9 32  1  0  0  0
 10 11  1  0  0  0
 10 24  1  0  0  0
 10 25  1  0  0  0
 11 12  1  0  0  0
 11 26  1  0  0  0
 11 27  1  0  0  0
 12 13  1  0  0  0
 12 28  1  0  0  0
 12 29  1  0  0  0
 14 15  2  0  0  0
 14 30  1  0  0  0
 15 31  1  0  0  0
M  CHG  1   9   1
M  END
> <s_m_entry_id>
1037

> <s_m_entry_name>
Spot_Xplore.std.159

> <s_m_Source_Path>
/Volumes/cluster/ddu/2448959/Work/2023/01_Fragment_screening_lib/1_Library_Construction/Work/SpotX/Ph4_Hypo_JC2

> <s_m_Source_File>
SpotX.maegz

> <i_m_Source_File_Index>
171

> <s_m_job_name>
ligprep_SpotXplore

> <i_lp_mmshare_version>
52144

> <s_epik_input>
W0NIM11bQ0gyXWMxW2NIXVtjSF1jKFtjSF1bY0hdMSlbTkhdQzI9TltDSDJdW0NIMl1bQ0gyXVMy

> <s_epik_cmdline>
J2VwaWtfcHl0aG9uJywgJy1waHQnLCAnMS4wJywgJy1waCcsICc3LjAnLCAnLXRuJywgJzgnLCAnLW1hJywgJzIwMCcsICctaW1hZScsICc8aW5maWxlLm1hZT4nLCAnLW9tYWUnLCAnPG91dGZpbGUubWFlPic=

> <r_epik_Ionization_Penalty>
  0.0853

> <r_epik_Ionization_Penalty_Charging>
  0.0853

> <r_epik_Ionization_Penalty_Neutral>
  0.0000

> <r_epik_State_Penalty>
  0.0710

> <r_epik_Charging_Adjusted_Penalty>
0.15628482324114

> <i_epik_Tot_Q>
1

> <i_epik_Tot_abs_Q>
1

> <i_f3d_flags>
0

> <s_lp_Force_Field>
OPLS_2005

> <r_lp_Energy>
17.935197

> <b_lp_Chiralities_Consistent>
1

> <s_lp_Variant>
mol_ID_159-1

> <s_epik_Chemistry_Notes>
This compound has an imine and may undergo hydrolysis.

> <s_m_subgroup_title>
ligprep_SpotXplore-out1

> <s_m_subgroupid>
ligprep_SpotXplore-out1

> <b_m_subgroup_collapsed>
0

$$$$
mol_ID_160
                    3D
 Schrodinger Suite 2020-4.
 18 19  0  0  1  0            999 V2000
   -3.7214    2.7745   -0.0714 O   0  0  0  0  0  0
   -2.5134    2.5469   -0.0714 C   0  0  0  0  0  0
   -1.4917    3.4232   -0.2193 N   0  5  0  0  0  0
   -0.3205    2.7517   -0.1517 C   0  0  0  0  0  0
    0.8105    3.2312   -0.1945 O   0  0  0  0  0  0
   -0.6501    1.3539    0.0236 C   0  0  0  0  0  0
    0.1593    0.2787    0.1396 C   0  0  0  0  0  0
    1.5763    0.0924    0.0275 C   0  0  0  0  0  0
    2.5071    0.7952   -0.6973 C   0  0  0  0  0  0
    3.8357    0.3087   -0.5200 C   0  0  0  0  0  0
    3.9027   -0.7552    0.3397 C   0  0  0  0  0  0
    2.3283   -1.1831    0.9512 S   0  0  0  0  0  0
   -2.0233    1.3158    0.0866 N   0  0  0  0  0  0
   -0.3619   -0.6562    0.2868 H   0  0  0  0  0  0
    2.2934    1.6210   -1.3583 H   0  0  0  0  0  0
    4.6831    0.7495   -1.0240 H   0  0  0  0  0  0
    4.7757   -1.3104    0.6496 H   0  0  0  0  0  0
   -2.5509    0.4651    0.2145 H   0  0  0  0  0  0
  1  2  2  0  0  0
  2 13  1  0  0  0
  2  3  1  0  0  0
  3  4  1  0  0  0
  4  5  2  0  0  0
  4  6  1  0  0  0
  6  7  2  0  0  0
  6 13  1  0  0  0
  7  8  1  0  0  0
  7 14  1  0  0  0
  8 12  1  0  0  0
  8  9  2  0  0  0
  9 10  1  0  0  0
  9 15  1  0  0  0
 10 11  2  0  0  0
 10 16  1  0  0  0
 11 12  1  0  0  0
 11 17  1  0  0  0
 13 18  1  0  0  0
M  CHG  1   3  -1
M  END
> <s_m_entry_id>
1038

> <s_m_entry_name>
Spot_Xplore.std.160

> <s_m_Source_Path>
/Volumes/cluster/ddu/2448959/Work/2023/01_Fragment_screening_lib/1_Library_Construction/Work/SpotX/Ph4_Hypo_JC2

> <s_m_Source_File>
SpotX.maegz

> <i_m_Source_File_Index>
172

> <s_m_job_name>
ligprep_SpotXplore

> <i_lp_mmshare_version>
52144

> <s_epik_input>
Tz1DMVtOSF1DKD1PKS9DKFtOSF0xKT1bQ0hdXGMyW2NIXVtjSF1bY0hdczI=

> <s_epik_cmdline>
J2VwaWtfcHl0aG9uJywgJy1waHQnLCAnMS4wJywgJy1waCcsICc3LjAnLCAnLXRuJywgJzgnLCAnLW1hJywgJzIwMCcsICctaW1hZScsICc8aW5maWxlLm1hZT4nLCAnLW9tYWUnLCAnPG91dGZpbGUubWFlPic=

> <r_epik_Ionization_Penalty>
  0.1281

> <r_epik_Ionization_Penalty_Charging>
  0.1281

> <r_epik_Ionization_Penalty_Neutral>
  0.0000

> <r_epik_State_Penalty>
  0.5282

> <r_epik_Charging_Adjusted_Penalty>
0.656269329300183

> <i_epik_Tot_Q>
-1

> <i_epik_Tot_abs_Q>
1

> <i_f3d_flags>
0

> <s_lp_Force_Field>
OPLS_2005

> <r_lp_Energy>
20.760327

> <b_lp_Chiralities_Consistent>
1

> <s_lp_Variant>
mol_ID_160-1

> <s_m_subgroup_title>
ligprep_SpotXplore-out1

> <s_m_subgroupid>
ligprep_SpotXplore-out1

> <b_m_subgroup_collapsed>
0

$$$$
mol_ID_161
                    3D
 Schrodinger Suite 2020-4.
 16 16  0  0  1  0            999 V2000
   -1.1425    0.0334    0.0229 N   0  0  0  0  0  0
    0.0142    0.0327    0.0162 C   0  0  0  0  0  0
    1.4848    0.0326    0.0082 C   0  0  1  0  0  0
    2.0820    0.6915   -1.2472 C   0  0  0  0  0  0
    3.5886    0.8690   -1.0276 C   0  0  0  0  0  0
    3.7954    1.1849    0.7664 S   0  0  0  0  0  0
    4.7417    0.2036    1.3181 O   0  0  0  0  0  0
    3.9800    2.6260    0.9944 O   0  0  0  0  0  0
    2.0861    0.7219    1.2393 C   0  0  0  0  0  0
    1.7954   -1.0128    0.0184 H   0  0  0  0  0  0
    1.8751    0.1109   -2.1465 H   0  0  0  0  0  0
    1.6244    1.6717   -1.3880 H   0  0  0  0  0  0
    4.1250   -0.0482   -1.2720 H   0  0  0  0  0  0
    4.0128    1.6882   -1.6085 H   0  0  0  0  0  0
    1.5432    1.6373    1.4772 H   0  0  0  0  0  0
    2.0973    0.0829    2.1224 H   0  0  0  0  0  0
  1  2  3  0  0  0
  2  3  1  0  0  0
  3  9  1  0  0  0
  3  4  1  0  0  0
  3 10  1  0  0  0
  4  5  1  0  0  0
  4 11  1  0  0  0
  4 12  1  0  0  0
  5  6  1  0  0  0
  5 13  1  0  0  0
  5 14  1  0  0  0
  6  7  2  0  0  0
  6  8  2  0  0  0
  6  9  1  0  0  0
  9 15  1  0  0  0
  9 16  1  0  0  0
M  END
> <s_m_entry_id>
1039

> <s_m_entry_name>
Spot_Xplore.std.161

> <s_m_Source_Path>
/Volumes/cluster/ddu/2448959/Work/2023/01_Fragment_screening_lib/1_Library_Construction/Work/SpotX/Ph4_Hypo_JC2

> <s_m_Source_File>
SpotX.maegz

> <i_m_Source_File_Index>
173

> <s_m_job_name>
ligprep_SpotXplore

> <i_lp_mmshare_version>
52144

> <s_epik_input>
TiNDW0NASF0oW0NIMl0xKVtDSDJdW0NIMl1TMSg9Tyk9Tw==

> <s_epik_cmdline>
J2VwaWtfcHl0aG9uJywgJy1waHQnLCAnMS4wJywgJy1waCcsICc3LjAnLCAnLXRuJywgJzgnLCAnLW1hJywgJzIwMCcsICctaW1hZScsICc8aW5maWxlLm1hZT4nLCAnLW9tYWUnLCAnPG91dGZpbGUubWFlPic=

> <r_lp_tautomer_probability>
1

> <r_epik_Ionization_Penalty>
  0.0000

> <r_epik_Ionization_Penalty_Charging>
  0.0000

> <r_epik_Ionization_Penalty_Neutral>
  0.0000

> <r_epik_State_Penalty>
  0.0000

> <r_epik_Charging_Adjusted_Penalty>
0

> <i_epik_Tot_Q>
0

> <i_epik_Tot_abs_Q>
0

> <i_f3d_flags>
0

> <s_lp_Force_Field>
OPLS_2005

> <r_lp_Energy>
0.469582

> <b_lp_Chiralities_Consistent>
1

> <s_lp_Variant>
mol_ID_161-1

> <s_m_subgroup_title>
ligprep_SpotXplore-out1

> <s_m_subgroupid>
ligprep_SpotXplore-out1

> <b_m_subgroup_collapsed>
0

$$$$
mol_ID_162
                    3D
 Schrodinger Suite 2020-4.
 22 23  0  0  1  0            999 V2000
   -0.0888    2.5301   -0.0000 C   0  0  0  0  0  0
   -0.6415    1.1863   -0.0000 N   0  0  0  0  0  0
    0.0138   -0.0022    0.0000 C   0  0  0  0  0  0
    1.5144   -0.0708   -0.0000 C   0  0  0  0  0  0
    2.0312   -1.3868    0.0000 O   0  0  0  0  0  0
   -0.7641   -1.0879    0.0000 N   0  0  0  0  0  0
   -2.0373   -0.5536    0.0000 C   0  0  0  0  0  0
   -3.3004   -1.1874    0.0000 C   0  0  0  0  0  0
   -4.4837   -0.4202    0.0000 C   0  0  0  0  0  0
   -4.4212    0.9885    0.0000 C   0  0  0  0  0  0
   -3.1726    1.6398    0.0000 C   0  0  0  0  0  0
   -1.9950    0.8689    0.0000 C   0  0  0  0  0  0
    1.0001    2.5184   -0.0000 H   0  0  0  0  0  0
   -0.4319    3.0639    0.8865 H   0  0  0  0  0  0
   -0.4319    3.0639   -0.8865 H   0  0  0  0  0  0
    1.8946    0.4486   -0.8800 H   0  0  0  0  0  0
    1.8946    0.4486    0.8800 H   0  0  0  0  0  0
    2.9746   -1.3397   -0.0000 H   0  0  0  0  0  0
   -3.3583   -2.2657    0.0000 H   0  0  0  0  0  0
   -5.4438   -0.9150    0.0000 H   0  0  0  0  0  0
   -5.3323    1.5687    0.0000 H   0  0  0  0  0  0
   -3.1197    2.7185    0.0000 H   0  0  0  0  0  0
  1  2  1  0  0  0
  1 13  1  0  0  0
  1 14  1  0  0  0
  1 15  1  0  0  0
  2 12  1  0  0  0
  2  3  1  0  0  0
  3  4  1  0  0  0
  3  6  2  0  0  0
  4  5  1  0  0  0
  4 16  1  0  0  0
  4 17  1  0  0  0
  5 18  1  0  0  0
  6  7  1  0  0  0
  7 12  2  0  0  0
  7  8  1  0  0  0
  8  9  2  0  0  0
  8 19  1  0  0  0
  9 10  1  0  0  0
  9 20  1  0  0  0
 10 11  2  0  0  0
 10 21  1  0  0  0
 11 12  1  0  0  0
 11 22  1  0  0  0
M  END
> <s_m_entry_id>
1040

> <s_m_entry_name>
Spot_Xplore.std.162

> <s_m_Source_Path>
/Volumes/cluster/ddu/2448959/Work/2023/01_Fragment_screening_lib/1_Library_Construction/Work/SpotX/Ph4_Hypo_JC2

> <s_m_Source_File>
SpotX.maegz

> <i_m_Source_File_Index>
174

> <s_m_job_name>
ligprep_SpotXplore

> <i_lp_mmshare_version>
52144

> <s_epik_input>
W09IXVtDSDJdYyhuMSluKFtDSDNdKWMoYzEyKVtjSF1bY0hdW2NIXVtjSF0y

> <s_epik_cmdline>
J2VwaWtfcHl0aG9uJywgJy1waHQnLCAnMS4wJywgJy1waCcsICc3LjAnLCAnLXRuJywgJzgnLCAnLW1hJywgJzIwMCcsICctaW1hZScsICc8aW5maWxlLm1hZT4nLCAnLW9tYWUnLCAnPG91dGZpbGUubWFlPic=

> <r_epik_Ionization_Penalty>
  0.0640

> <r_epik_Ionization_Penalty_Charging>
  0.0000

> <r_epik_Ionization_Penalty_Neutral>
  0.0640

> <r_epik_State_Penalty>
  0.0557

> <r_epik_Charging_Adjusted_Penalty>
0.055674020318992

> <i_epik_Tot_Q>
0

> <i_epik_Tot_abs_Q>
0

> <i_f3d_flags>
0

> <s_lp_Force_Field>
OPLS_2005

> <r_lp_Energy>
7.167598

> <b_lp_Chiralities_Consistent>
1

> <s_lp_Variant>
mol_ID_162-1

> <s_m_subgroup_title>
ligprep_SpotXplore-out1

> <s_m_subgroupid>
ligprep_SpotXplore-out1

> <b_m_subgroup_collapsed>
0

$$$$
mol_ID_163
                    3D
 Schrodinger Suite 2020-4.
 18 18  0  0  1  0            999 V2000
   -0.6978    0.4287    0.7553 O   0  0  0  0  0  0
   -0.0341   -0.1088   -0.1589 C   0  0  0  0  0  0
   -0.5176   -0.6244   -1.1901 O   0  5  0  0  0  0
    1.4960   -0.1315   -0.0372 C   0  0  0  0  0  0
    2.0025    0.0284    1.4142 C   0  0  1  0  0  0
    1.6110   -1.1210    2.3675 C   0  0  0  0  0  0
    2.8685   -1.4373    3.1866 C   0  0  0  0  0  0
    3.9683   -0.7291    2.4155 C   0  0  0  0  0  0
    5.1647   -0.8682    2.6595 O   0  0  0  0  0  0
    3.4538    0.0457    1.4621 N   0  0  0  0  0  0
    1.8703   -1.0639   -0.4626 H   0  0  0  0  0  0
    1.8916    0.6739   -0.6569 H   0  0  0  0  0  0
    1.6649    0.9801    1.8284 H   0  0  0  0  0  0
    0.7694   -0.8446    3.0035 H   0  0  0  0  0  0
    1.3139   -2.0069    1.8043 H   0  0  0  0  0  0
    2.8041   -1.0216    4.1925 H   0  0  0  0  0  0
    3.0555   -2.5092    3.2593 H   0  0  0  0  0  0
    4.0080    0.6064    0.8314 H   0  0  0  0  0  0
  1  2  2  0  0  0
  2  3  1  0  0  0
  2  4  1  0  0  0
  4  5  1  0  0  0
  4 11  1  0  0  0
  4 12  1  0  0  0
  5 10  1  0  0  0
  5  6  1  0  0  0
  5 13  1  0  0  0
  6  7  1  0  0  0
  6 14  1  0  0  0
  6 15  1  0  0  0
  7  8  1  0  0  0
  7 16  1  0  0  0
  7 17  1  0  0  0
  8  9  2  0  0  0
  8 10  1  0  0  0
 10 18  1  0  0  0
M  CHG  1   3  -1
M  END
> <s_m_entry_id>
1041

> <s_m_entry_name>
Spot_Xplore.std.163

> <s_m_Source_Path>
/Volumes/cluster/ddu/2448959/Work/2023/01_Fragment_screening_lib/1_Library_Construction/Work/SpotX/Ph4_Hypo_JC2

> <s_m_Source_File>
SpotX.maegz

> <i_m_Source_File_Index>
175

> <s_m_job_name>
ligprep_SpotXplore

> <i_lp_mmshare_version>
52144

> <s_epik_input>
Tz1DKFtPSF0pW0NIMl1bQ0BIXTFbQ0gyXVtDSDJdQyg9TylbTkhdMQ==

> <s_epik_cmdline>
J2VwaWtfcHl0aG9uJywgJy1waHQnLCAnMS4wJywgJy1waCcsICc3LjAnLCAnLXRuJywgJzgnLCAnLW1hJywgJzIwMCcsICctaW1hZScsICc8aW5maWxlLm1hZT4nLCAnLW9tYWUnLCAnPG91dGZpbGUubWFlPic=

> <r_lp_tautomer_probability>
1

> <r_epik_Ionization_Penalty>
  0.0022

> <r_epik_Ionization_Penalty_Charging>
  0.0022

> <r_epik_Ionization_Penalty_Neutral>
  0.0000

> <r_epik_State_Penalty>
  0.0000

> <r_epik_Charging_Adjusted_Penalty>
0.00218792329304306

> <i_epik_Tot_Q>
-1

> <i_epik_Tot_abs_Q>
1

> <i_f3d_flags>
0

> <s_lp_Force_Field>
OPLS_2005

> <r_lp_Energy>
9.41917

> <b_lp_Chiralities_Consistent>
1

> <s_lp_Variant>
mol_ID_163-1

> <s_m_subgroup_title>
ligprep_SpotXplore-out1

> <s_m_subgroupid>
ligprep_SpotXplore-out1

> <b_m_subgroup_collapsed>
0

$$$$
mol_ID_164
                    3D
 Schrodinger Suite 2020-4.
 16 17  0  0  1  0            999 V2000
    1.2111   -3.9636    0.7582 C   0  0  0  0  0  0
    1.0971   -3.3753    2.0293 C   0  0  0  0  0  0
   -0.0376   -2.8007    2.4797 N   0  0  0  0  0  0
   -1.1426   -2.7698    1.6968 C   0  0  0  0  0  0
   -2.2854   -2.1947    2.1421 N   0  0  0  0  0  0
   -3.3821   -2.1677    1.3566 C   0  0  0  0  0  0
   -3.4173   -2.7158    0.0631 C   0  0  0  0  0  0
   -2.2486   -3.3198   -0.4291 C   0  0  0  0  0  0
   -1.1025   -3.3482    0.3914 C   0  0  0  0  0  0
    0.0833   -3.9485   -0.0789 C   0  0  0  0  0  0
    2.1382   -4.4137    0.4349 H   0  0  0  0  0  0
    1.9396   -3.3648    2.7049 H   0  0  0  0  0  0
   -4.2582   -1.6940    1.7741 H   0  0  0  0  0  0
   -4.3161   -2.6736   -0.5344 H   0  0  0  0  0  0
   -2.2352   -3.7527   -1.4188 H   0  0  0  0  0  0
    0.1305   -4.3904   -1.0636 H   0  0  0  0  0  0
  1 10  1  0  0  0
  1  2  2  0  0  0
  1 11  1  0  0  0
  2  3  1  0  0  0
  2 12  1  0  0  0
  3  4  2  0  0  0
  4  9  1  0  0  0
  4  5  1  0  0  0
  5  6  2  0  0  0
  6  7  1  0  0  0
  6 13  1  0  0  0
  7  8  2  0  0  0
  7 14  1  0  0  0
  8  9  1  0  0  0
  8 15  1  0  0  0
  9 10  2  0  0  0
 10 16  1  0  0  0
M  END
> <s_m_entry_id>
1042

> <s_m_entry_name>
Spot_Xplore.std.164

> <s_m_Source_Path>
/Volumes/cluster/ddu/2448959/Work/2023/01_Fragment_screening_lib/1_Library_Construction/Work/SpotX/Ph4_Hypo_JC2

> <s_m_Source_File>
SpotX.maegz

> <i_m_Source_File_Index>
176

> <s_m_job_name>
ligprep_SpotXplore

> <i_lp_mmshare_version>
52144

> <s_epik_input>
bjFbY0hdW2NIXVtjSF1jKGMxMilbY0hdW2NIXVtjSF1uMg==

> <s_epik_cmdline>
J2VwaWtfcHl0aG9uJywgJy1waHQnLCAnMS4wJywgJy1waCcsICc3LjAnLCAnLXRuJywgJzgnLCAnLW1hJywgJzIwMCcsICctaW1hZScsICc8aW5maWxlLm1hZT4nLCAnLW9tYWUnLCAnPG91dGZpbGUubWFlPic=

> <r_lp_tautomer_probability>
1

> <r_epik_Ionization_Penalty>
  0.0000

> <r_epik_Ionization_Penalty_Charging>
  0.0000

> <r_epik_Ionization_Penalty_Neutral>
  0.0000

> <r_epik_State_Penalty>
  0.0000

> <r_epik_Charging_Adjusted_Penalty>
0

> <i_epik_Tot_Q>
0

> <i_epik_Tot_abs_Q>
0

> <i_f3d_flags>
0

> <s_lp_Force_Field>
OPLS_2005

> <r_lp_Energy>
6.376892

> <b_lp_Chiralities_Consistent>
1

> <s_lp_Variant>
mol_ID_164-1

> <s_m_subgroup_title>
ligprep_SpotXplore-out1

> <s_m_subgroupid>
ligprep_SpotXplore-out1

> <b_m_subgroup_collapsed>
0

$$$$
mol_ID_165
                    3D
 Schrodinger Suite 2020-4.
 29 30  0  0  1  0            999 V2000
   -0.4795   -0.9203    0.6620 O   0  0  0  0  0  0
    0.1466    0.0887    0.3366 C   0  0  0  0  0  0
    1.6358   -0.0174    0.1662 C   0  0  0  0  0  0
    2.4219   -0.5084    1.2316 C   0  0  0  0  0  0
    3.8163   -0.6417    1.0860 C   0  0  0  0  0  0
    4.4333   -0.2976   -0.1314 C   0  0  0  0  0  0
    3.6541    0.1716   -1.2058 C   0  0  0  0  0  0
    2.2589    0.3049   -1.0637 C   0  0  0  0  0  0
    1.5242    0.7417   -2.1160 F   0  0  0  0  0  0
   -0.4502    1.2883    0.1211 N   0  0  0  0  0  0
    0.2297    2.5917    0.0759 C   0  0  0  0  0  0
   -0.1461    3.4063    1.3290 C   0  0  0  0  0  0
   -1.6151    3.5188    1.4768 N   0  3  0  0  0  0
   -2.3240    2.2214    1.4023 C   0  0  0  0  0  0
   -1.9098    1.4444    0.1397 C   0  0  0  0  0  0
    1.9589   -0.7810    2.1691 H   0  0  0  0  0  0
    4.4122   -1.0109    1.9079 H   0  0  0  0  0  0
    5.5025   -0.4011   -0.2434 H   0  0  0  0  0  0
    4.1271    0.4252   -2.1431 H   0  0  0  0  0  0
    1.3146    2.5226    0.0224 H   0  0  0  0  0  0
   -0.0801    3.1222   -0.8258 H   0  0  0  0  0  0
    0.2618    2.9270    2.2201 H   0  0  0  0  0  0
    0.2862    4.4060    1.2790 H   0  0  0  0  0  0
   -1.8286    3.9650    2.3575 H   0  0  0  0  0  0
   -2.0918    1.6378    2.2944 H   0  0  0  0  0  0
   -3.3994    2.3999    1.4074 H   0  0  0  0  0  0
   -2.2188    1.9899   -0.7532 H   0  0  0  0  0  0
   -2.4381    0.4907    0.0981 H   0  0  0  0  0  0
   -1.9583    4.1029    0.7275 H   0  0  0  0  0  0
  1  2  2  0  0  0
  2  3  1  0  0  0
  2 10  1  0  0  0
  3  8  1  0  0  0
  3  4  2  0  0  0
  4  5  1  0  0  0
  4 16  1  0  0  0
  5  6  2  0  0  0
  5 17  1  0  0  0
  6  7  1  0  0  0
  6 18  1  0  0  0
  7  8  2  0  0  0
  7 19  1  0  0  0
  8  9  1  0  0  0
 10 15  1  0  0  0
 10 11  1  0  0  0
 11 12  1  0  0  0
 11 20  1  0  0  0
 11 21  1  0  0  0
 12 13  1  0  0  0
 12 22  1  0  0  0
 12 23  1  0  0  0
 13 14  1  0  0  0
 13 24  1  0  0  0
 13 29  1  0  0  0
 14 15  1  0  0  0
 14 25  1  0  0  0
 14 26  1  0  0  0
 15 27  1  0  0  0
 15 28  1  0  0  0
M  CHG  1  13   1
M  END
> <s_m_entry_id>
1043

> <s_m_entry_name>
Spot_Xplore.std.165

> <s_m_Source_Path>
/Volumes/cluster/ddu/2448959/Work/2023/01_Fragment_screening_lib/1_Library_Construction/Work/SpotX/Ph4_Hypo_JC2

> <s_m_Source_File>
SpotX.maegz

> <i_m_Source_File_Index>
177

> <s_m_job_name>
ligprep_SpotXplore

> <i_lp_mmshare_version>
52144

> <s_epik_input>
W0NIMl0xW0NIMl1bTkhdW0NIMl1bQ0gyXU4xQyg9TyljMltjSF1bY0hdW2NIXVtjSF1jMkY=

> <s_epik_cmdline>
J2VwaWtfcHl0aG9uJywgJy1waHQnLCAnMS4wJywgJy1waCcsICc3LjAnLCAnLXRuJywgJzgnLCAnLW1hJywgJzIwMCcsICctaW1hZScsICc8aW5maWxlLm1hZT4nLCAnLW9tYWUnLCAnPG91dGZpbGUubWFlPic=

> <r_epik_Ionization_Penalty>
  0.0518

> <r_epik_Ionization_Penalty_Charging>
  0.0518

> <r_epik_Ionization_Penalty_Neutral>
  0.0000

> <r_epik_State_Penalty>
  0.0444

> <r_epik_Charging_Adjusted_Penalty>
0.0962543773097299

> <i_epik_Tot_Q>
1

> <i_epik_Tot_abs_Q>
1

> <i_f3d_flags>
0

> <s_lp_Force_Field>
OPLS_2005

> <r_lp_Energy>
47.321137

> <b_lp_Chiralities_Consistent>
1

> <s_lp_Variant>
mol_ID_165-1

> <s_m_subgroup_title>
ligprep_SpotXplore-out1

> <s_m_subgroupid>
ligprep_SpotXplore-out1

> <b_m_subgroup_collapsed>
0

$$$$
mol_ID_166
                    3D
 Schrodinger Suite 2020-4.
 28 29  0  0  1  0            999 V2000
    0.1774   -0.3388   -0.0407 N   0  3  0  0  0  0
    1.6057    0.0222    0.0024 C   0  0  0  0  0  0
    1.9472    0.7841    1.2771 C   0  0  0  0  0  0
    1.3842    2.0531    1.5428 C   0  0  0  0  0  0
    1.7110    2.7439    2.7256 C   0  0  0  0  0  0
    2.6011    2.1716    3.6535 C   0  0  0  0  0  0
    3.1625    0.9063    3.3986 C   0  0  0  0  0  0
    2.8358    0.2150    2.2159 C   0  0  0  0  0  0
    2.0550    0.7304   -1.2710 C   0  0  0  0  0  0
    1.3007    1.7879   -1.8296 C   0  0  0  0  0  0
    1.7350    2.4285   -3.0064 C   0  0  0  0  0  0
    2.9252    2.0169   -3.6352 C   0  0  0  0  0  0
    3.6810    0.9639   -3.0865 C   0  0  0  0  0  0
    3.2469    0.3229   -1.9099 C   0  0  0  0  0  0
   -0.3806    0.5025   -0.0647 H   0  0  0  0  0  0
   -0.0577   -0.8760    0.7815 H   0  0  0  0  0  0
    2.1319   -0.9329    0.0385 H   0  0  0  0  0  0
    0.6958    2.5062    0.8464 H   0  0  0  0  0  0
    1.2783    3.7139    2.9215 H   0  0  0  0  0  0
    2.8522    2.7025    4.5600 H   0  0  0  0  0  0
    3.8452    0.4659    4.1103 H   0  0  0  0  0  0
    3.2760   -0.7544    2.0333 H   0  0  0  0  0  0
    0.3827    2.1145   -1.3645 H   0  0  0  0  0  0
    1.1545    3.2361   -3.4276 H   0  0  0  0  0  0
    3.2583    2.5089   -4.5373 H   0  0  0  0  0  0
    4.5947    0.6478   -3.5681 H   0  0  0  0  0  0
    3.8384   -0.4817   -1.4979 H   0  0  0  0  0  0
   -0.0052   -0.8883   -0.8681 H   0  0  0  0  0  0
  1  2  1  0  0  0
  1 15  1  0  0  0
  1 16  1  0  0  0
  1 28  1  0  0  0
  2  3  1  0  0  0
  2  9  1  0  0  0
  2 17  1  0  0  0
  3  8  1  0  0  0
  3  4  2  0  0  0
  4  5  1  0  0  0
  4 18  1  0  0  0
  5  6  2  0  0  0
  5 19  1  0  0  0
  6  7  1  0  0  0
  6 20  1  0  0  0
  7  8  2  0  0  0
  7 21  1  0  0  0
  8 22  1  0  0  0
  9 14  1  0  0  0
  9 10  2  0  0  0
 10 11  1  0  0  0
 10 23  1  0  0  0
 11 12  2  0  0  0
 11 24  1  0  0  0
 12 13  1  0  0  0
 12 25  1  0  0  0
 13 14  2  0  0  0
 13 26  1  0  0  0
 14 27  1  0  0  0
M  CHG  1   1   1
M  END
> <s_m_entry_id>
1044

> <s_m_entry_name>
Spot_Xplore.std.166

> <s_m_Source_Path>
/Volumes/cluster/ddu/2448959/Work/2023/01_Fragment_screening_lib/1_Library_Construction/Work/SpotX/Ph4_Hypo_JC2

> <s_m_Source_File>
SpotX.maegz

> <i_m_Source_File_Index>
178

> <s_m_job_name>
ligprep_SpotXplore

> <i_lp_mmshare_version>
52144

> <s_epik_input>
W2NIXTFbY0hdW2NIXVtjSF1bY0hdYzFbQ0hdKFtOSDJdKWMyW2NIXVtjSF1bY0hdW2NIXVtjSF0y

> <s_epik_cmdline>
J2VwaWtfcHl0aG9uJywgJy1waHQnLCAnMS4wJywgJy1waCcsICc3LjAnLCAnLXRuJywgJzgnLCAnLW1hJywgJzIwMCcsICctaW1hZScsICc8aW5maWxlLm1hZT4nLCAnLW9tYWUnLCAnPG91dGZpbGUubWFlPic=

> <r_epik_Ionization_Penalty>
  0.1165

> <r_epik_Ionization_Penalty_Charging>
  0.1165

> <r_epik_Ionization_Penalty_Neutral>
  0.0000

> <r_epik_State_Penalty>
  0.1061

> <r_epik_Charging_Adjusted_Penalty>
0.222652525395905

> <i_epik_Tot_Q>
1

> <i_epik_Tot_abs_Q>
1

> <i_f3d_flags>
0

> <s_lp_Force_Field>
OPLS_2005

> <r_lp_Energy>
8.169093

> <b_lp_Chiralities_Consistent>
1

> <s_lp_Variant>
mol_ID_166-1

> <s_m_subgroup_title>
ligprep_SpotXplore-out1

> <s_m_subgroupid>
ligprep_SpotXplore-out1

> <b_m_subgroup_collapsed>
0

$$$$
mol_ID_166
                    3D
 Schrodinger Suite 2020-4.
 27 28  0  0  1  0            999 V2000
   -0.0756    0.0022   -0.0716 N   0  0  0  0  0  0
    1.3725   -0.0780    0.0117 C   0  0  0  0  0  0
    1.8834   -1.5125    0.0237 C   0  0  0  0  0  0
    1.2578   -2.5064    0.8106 C   0  0  0  0  0  0
    1.7565   -3.8235    0.8206 C   0  0  0  0  0  0
    2.8850   -4.1558    0.0471 C   0  0  0  0  0  0
    3.5158   -3.1697   -0.7352 C   0  0  0  0  0  0
    3.0175   -1.8523   -0.7450 C   0  0  0  0  0  0
    1.9292    0.7079    1.1906 C   0  0  0  0  0  0
    1.3700    0.5783    2.4823 C   0  0  0  0  0  0
    1.9068    1.3016    3.5650 C   0  0  0  0  0  0
    3.0071    2.1570    3.3649 C   0  0  0  0  0  0
    3.5718    2.2868    2.0815 C   0  0  0  0  0  0
    3.0354    1.5633    0.9986 C   0  0  0  0  0  0
   -0.4216    0.5794    0.6814 H   0  0  0  0  0  0
   -0.3381    0.4647   -0.9301 H   0  0  0  0  0  0
    1.7424    0.3919   -0.9004 H   0  0  0  0  0  0
    0.3949   -2.2630    1.4128 H   0  0  0  0  0  0
    1.2738   -4.5780    1.4241 H   0  0  0  0  0  0
    3.2679   -5.1656    0.0556 H   0  0  0  0  0  0
    4.3833   -3.4232   -1.3265 H   0  0  0  0  0  0
    3.5114   -1.1015   -1.3442 H   0  0  0  0  0  0
    0.5299   -0.0798    2.6492 H   0  0  0  0  0  0
    1.4756    1.1982    4.5500 H   0  0  0  0  0  0
    3.4192    2.7108    4.1956 H   0  0  0  0  0  0
    4.4182    2.9400    1.9280 H   0  0  0  0  0  0
    3.4788    1.6659    0.0189 H   0  0  0  0  0  0
  1  2  1  0  0  0
  1 15  1  0  0  0
  1 16  1  0  0  0
  2  3  1  0  0  0
  2  9  1  0  0  0
  2 17  1  0  0  0
  3  8  1  0  0  0
  3  4  2  0  0  0
  4  5  1  0  0  0
  4 18  1  0  0  0
  5  6  2  0  0  0
  5 19  1  0  0  0
  6  7  1  0  0  0
  6 20  1  0  0  0
  7  8  2  0  0  0
  7 21  1  0  0  0
  8 22  1  0  0  0
  9 14  1  0  0  0
  9 10  2  0  0  0
 10 11  1  0  0  0
 10 23  1  0  0  0
 11 12  2  0  0  0
 11 24  1  0  0  0
 12 13  1  0  0  0
 12 25  1  0  0  0
 13 14  2  0  0  0
 13 26  1  0  0  0
 14 27  1  0  0  0
M  END
> <s_m_entry_id>
1045

> <s_m_entry_name>
Spot_Xplore.std.166

> <s_m_Source_Path>
/Volumes/cluster/ddu/2448959/Work/2023/01_Fragment_screening_lib/1_Library_Construction/Work/SpotX/Ph4_Hypo_JC2

> <s_m_Source_File>
SpotX.maegz

> <i_m_Source_File_Index>
179

> <s_m_job_name>
ligprep_SpotXplore

> <i_lp_mmshare_version>
52144

> <s_epik_input>
W2NIXTFbY0hdW2NIXVtjSF1bY0hdYzFbQ0hdKFtOSDJdKWMyW2NIXVtjSF1bY0hdW2NIXVtjSF0y

> <s_epik_cmdline>
J2VwaWtfcHl0aG9uJywgJy1waHQnLCAnMS4wJywgJy1waCcsICc3LjAnLCAnLXRuJywgJzgnLCAnLW1hJywgJzIwMCcsICctaW1hZScsICc8aW5maWxlLm1hZT4nLCAnLW9tYWUnLCAnPG91dGZpbGUubWFlPic=

> <r_epik_Ionization_Penalty>
  1.0209

> <r_epik_Ionization_Penalty_Charging>
  0.0000

> <r_epik_Ionization_Penalty_Neutral>
  1.0209

> <r_epik_State_Penalty>
  1.0711

> <r_epik_Charging_Adjusted_Penalty>
1.07112838540113

> <i_epik_Tot_Q>
0

> <i_epik_Tot_abs_Q>
0

> <i_f3d_flags>
0

> <s_lp_Force_Field>
OPLS_2005

> <r_lp_Energy>
7.307228

> <b_lp_Chiralities_Consistent>
1

> <s_lp_Variant>
mol_ID_166-2

> <s_m_subgroup_title>
ligprep_SpotXplore-out1

> <s_m_subgroupid>
ligprep_SpotXplore-out1

> <b_m_subgroup_collapsed>
0

$$$$
mol_ID_167
                    3D
 Schrodinger Suite 2020-4.
 17 18  0  0  1  0            999 V2000
    0.0851   -0.0072   -0.0000 N   0  0  0  0  0  0
    1.4698   -0.0044   -0.0000 C   0  0  0  0  0  0
    2.1464   -1.1564   -0.0000 N   0  0  0  0  0  0
    3.4719   -0.8894   -0.0000 N   0  0  0  0  0  0
    3.4666    0.4426    0.0000 C   0  0  0  0  0  0
    4.7189    1.1965    0.0000 C   0  0  0  0  0  0
    6.0072    0.7222    0.0000 C   0  0  0  0  0  0
    6.9857    1.7596    0.0000 C   0  0  0  0  0  0
    6.4334    3.0131    0.0000 C   0  0  0  0  0  0
    4.6922    2.9460    0.0000 S   0  0  0  0  0  0
    2.2513    1.0685    0.0000 N   0  0  0  0  0  0
   -0.4399    0.8556   -0.0000 H   0  0  0  0  0  0
    1.7712   -2.0940   -0.0000 H   0  0  0  0  0  0
    6.2799   -0.3228    0.0000 H   0  0  0  0  0  0
    8.0457    1.5528   -0.0000 H   0  0  0  0  0  0
    6.9399    3.9671    0.0000 H   0  0  0  0  0  0
   -0.4448   -0.8666   -0.0000 H   0  0  0  0  0  0
  1  2  1  0  0  0
  1 12  1  0  0  0
  1 17  1  0  0  0
  2  3  1  0  0  0
  2 11  2  0  0  0
  3  4  1  0  0  0
  3 13  1  0  0  0
  4  5  2  0  0  0
  5  6  1  0  0  0
  5 11  1  0  0  0
  6 10  1  0  0  0
  6  7  2  0  0  0
  7  8  1  0  0  0
  7 14  1  0  0  0
  8  9  2  0  0  0
  8 15  1  0  0  0
  9 10  1  0  0  0
  9 16  1  0  0  0
M  END
> <s_m_entry_id>
1046

> <s_m_entry_name>
Spot_Xplore.std.167

> <s_m_Source_Path>
/Volumes/cluster/ddu/2448959/Work/2023/01_Fragment_screening_lib/1_Library_Construction/Work/SpotX/Ph4_Hypo_JC2

> <s_m_Source_File>
SpotX.maegz

> <i_m_Source_File_Index>
180

> <s_m_job_name>
ligprep_SpotXplore

> <i_lp_mmshare_version>
52144

> <s_epik_input>
W05IMl1jMW5uYyhbbkhdMSktYzJbY0hdW2NIXVtjSF1zMg==

> <s_epik_cmdline>
J2VwaWtfcHl0aG9uJywgJy1waHQnLCAnMS4wJywgJy1waCcsICc3LjAnLCAnLXRuJywgJzgnLCAnLW1hJywgJzIwMCcsICctaW1hZScsICc8aW5maWxlLm1hZT4nLCAnLW9tYWUnLCAnPG91dGZpbGUubWFlPic=

> <r_lp_tautomer_probability>
0.850275668368266

> <r_epik_Ionization_Penalty>
  0.0004

> <r_epik_Ionization_Penalty_Charging>
  0.0000

> <r_epik_Ionization_Penalty_Neutral>
  0.0004

> <r_epik_State_Penalty>
  0.0849

> <r_epik_Charging_Adjusted_Penalty>
0.0849381416947052

> <i_epik_Tot_Q>
0

> <i_epik_Tot_abs_Q>
0

> <i_f3d_flags>
0

> <s_lp_Force_Field>
OPLS_2005

> <r_lp_Energy>
4.452851

> <b_lp_Chiralities_Consistent>
1

> <s_lp_Variant>
mol_ID_167-1

> <s_m_subgroup_title>
ligprep_SpotXplore-out1

> <s_m_subgroupid>
ligprep_SpotXplore-out1

> <b_m_subgroup_collapsed>
0

$$$$
mol_ID_167
                    3D
 Schrodinger Suite 2020-4.
 17 18  0  0  1  0            999 V2000
    0.0526    0.0538   -0.0000 N   0  0  0  0  0  0
    1.4562    0.0013   -0.0000 C   0  0  0  0  0  0
    2.1330   -1.1416   -0.0000 N   0  0  0  0  0  0
    3.4096   -0.7043   -0.0000 N   0  0  0  0  0  0
    3.4379    0.6333   -0.0000 C   0  0  0  0  0  0
    4.6624    1.4264    0.0000 C   0  0  0  0  0  0
    5.9644    0.9932   -0.0000 C   0  0  0  0  0  0
    6.9077    2.0630   -0.0000 C   0  0  0  0  0  0
    6.3132    3.2974   -0.0000 C   0  0  0  0  0  0
    4.5747    3.1726    0.0000 S   0  0  0  0  0  0
    2.2059    1.1413    0.0000 N   0  0  0  0  0  0
   -0.4244    0.9436   -0.0000 H   0  0  0  0  0  0
    4.2025   -1.3296   -0.0000 H   0  0  0  0  0  0
    6.2711   -0.0424   -0.0000 H   0  0  0  0  0  0
    7.9742    1.8920   -0.0000 H   0  0  0  0  0  0
    6.7873    4.2680   -0.0000 H   0  0  0  0  0  0
   -0.4900   -0.7976   -0.0000 H   0  0  0  0  0  0
  1  2  1  0  0  0
  1 12  1  0  0  0
  1 17  1  0  0  0
  2  3  2  0  0  0
  2 11  1  0  0  0
  3  4  1  0  0  0
  4  5  1  0  0  0
  4 13  1  0  0  0
  5  6  1  0  0  0
  5 11  2  0  0  0
  6 10  1  0  0  0
  6  7  2  0  0  0
  7  8  1  0  0  0
  7 14  1  0  0  0
  8  9  2  0  0  0
  8 15  1  0  0  0
  9 10  1  0  0  0
  9 16  1  0  0  0
M  END
> <s_m_entry_id>
1047

> <s_m_entry_name>
Spot_Xplore.std.167

> <s_m_Source_Path>
/Volumes/cluster/ddu/2448959/Work/2023/01_Fragment_screening_lib/1_Library_Construction/Work/SpotX/Ph4_Hypo_JC2

> <s_m_Source_File>
SpotX.maegz

> <i_m_Source_File_Index>
181

> <s_m_job_name>
ligprep_SpotXplore

> <i_lp_mmshare_version>
52144

> <s_epik_input>
W05IMl1jMW5uYyhbbkhdMSktYzJbY0hdW2NIXVtjSF1zMg==

> <s_epik_cmdline>
J2VwaWtfcHl0aG9uJywgJy1waHQnLCAnMS4wJywgJy1waCcsICc3LjAnLCAnLXRuJywgJzgnLCAnLW1hJywgJzIwMCcsICctaW1hZScsICc8aW5maWxlLm1hZT4nLCAnLW9tYWUnLCAnPG91dGZpbGUubWFlPic=

> <r_lp_tautomer_probability>
0.147413118698521

> <r_epik_Ionization_Penalty>
  0.0005

> <r_epik_Ionization_Penalty_Charging>
  0.0000

> <r_epik_Ionization_Penalty_Neutral>
  0.0005

> <r_epik_State_Penalty>
  1.1928

> <r_epik_Charging_Adjusted_Penalty>
1.19280828685182

> <i_epik_Tot_Q>
0

> <i_epik_Tot_abs_Q>
0

> <i_f3d_flags>
0

> <s_lp_Force_Field>
OPLS_2005

> <r_lp_Energy>
0.185255

> <b_lp_Chiralities_Consistent>
1

> <s_lp_Variant>
mol_ID_167-2

> <s_m_subgroup_title>
ligprep_SpotXplore-out1

> <s_m_subgroupid>
ligprep_SpotXplore-out1

> <b_m_subgroup_collapsed>
0

$$$$
mol_ID_168
                    3D
 Schrodinger Suite 2020-4.
 24 25  0  0  1  0            999 V2000
    0.3857    0.4085   -0.4319 C   0  0  0  0  0  0
    1.8057   -0.0186   -0.0156 C   0  0  1  0  0  0
    2.1459    0.4315    1.3891 C   0  0  0  0  0  0
    2.1352    1.5975    1.7792 O   0  0  0  0  0  0
    2.4529   -0.6476    2.0979 N   0  0  0  0  0  0
    2.3578   -1.7768    1.3884 C   0  0  0  0  0  0
    2.6232   -2.8939    1.8299 O   0  0  0  0  0  0
    1.9428   -1.4696    0.1357 N   0  0  0  0  0  0
    1.7662   -2.3863   -0.9496 C   0  0  0  0  0  0
    2.0363   -1.9712   -2.2753 C   0  0  0  0  0  0
    1.8581   -2.8560   -3.3560 C   0  0  0  0  0  0
    1.3998   -4.1664   -3.1273 C   0  0  0  0  0  0
    1.1802   -5.2494   -4.4523 Cl  0  0  0  0  0  0
    1.1167   -4.5894   -1.8155 C   0  0  0  0  0  0
    1.2959   -3.7053   -0.7342 C   0  0  0  0  0  0
    0.3026    1.4945   -0.4834 H   0  0  0  0  0  0
   -0.3639    0.0503    0.2754 H   0  0  0  0  0  0
    0.1247    0.0171   -1.4151 H   0  0  0  0  0  0
    2.5559    0.3757   -0.7019 H   0  0  0  0  0  0
    2.7337   -0.6189    3.0671 H   0  0  0  0  0  0
    2.3917   -0.9734   -2.4826 H   0  0  0  0  0  0
    2.0733   -2.5258   -4.3616 H   0  0  0  0  0  0
    0.7564   -5.5916   -1.6361 H   0  0  0  0  0  0
    1.0497   -4.0535    0.2576 H   0  0  0  0  0  0
  1  2  1  0  0  0
  1 16  1  0  0  0
  1 17  1  0  0  0
  1 18  1  0  0  0
  2  8  1  0  0  0
  2  3  1  0  0  0
  2 19  1  0  0  0
  3  4  2  0  0  0
  3  5  1  0  0  0
  5  6  1  0  0  0
  5 20  1  0  0  0
  6  7  2  0  0  0
  6  8  1  0  0  0
  8  9  1  0  0  0
  9 15  1  0  0  0
  9 10  2  0  0  0
 10 11  1  0  0  0
 10 21  1  0  0  0
 11 12  2  0  0  0
 11 22  1  0  0  0
 12 13  1  0  0  0
 12 14  1  0  0  0
 14 15  2  0  0  0
 14 23  1  0  0  0
 15 24  1  0  0  0
M  END
> <s_m_entry_id>
1048

> <s_m_entry_name>
Spot_Xplore.std.168

> <s_m_Source_Path>
/Volumes/cluster/ddu/2448959/Work/2023/01_Fragment_screening_lib/1_Library_Construction/Work/SpotX/Ph4_Hypo_JC2

> <s_m_Source_File>
SpotX.maegz

> <i_m_Source_File_Index>
182

> <s_m_job_name>
ligprep_SpotXplore

> <i_lp_mmshare_version>
52144

> <s_epik_input>
W0NIM11bQ0BIXTFDKD1PKVtOSF1DKD1PKU4xYzJbY0hdW2NIXWMoQ2wpW2NIXVtjSF0y

> <s_epik_cmdline>
J2VwaWtfcHl0aG9uJywgJy1waHQnLCAnMS4wJywgJy1waCcsICc3LjAnLCAnLXRuJywgJzgnLCAnLW1hJywgJzIwMCcsICctaW1hZScsICc8aW5maWxlLm1hZT4nLCAnLW9tYWUnLCAnPG91dGZpbGUubWFlPic=

> <r_lp_tautomer_probability>
1

> <r_epik_Ionization_Penalty>
  0.0287

> <r_epik_Ionization_Penalty_Charging>
  0.0000

> <r_epik_Ionization_Penalty_Neutral>
  0.0287

> <r_epik_State_Penalty>
  0.0000

> <r_epik_Charging_Adjusted_Penalty>
0

> <i_epik_Tot_Q>
0

> <i_epik_Tot_abs_Q>
0

> <i_f3d_flags>
0

> <s_lp_Force_Field>
OPLS_2005

> <r_lp_Energy>
28.607435

> <b_lp_Chiralities_Consistent>
1

> <s_lp_Variant>
mol_ID_168-1

> <s_m_subgroup_title>
ligprep_SpotXplore-out1

> <s_m_subgroupid>
ligprep_SpotXplore-out1

> <b_m_subgroup_collapsed>
0

$$$$
mol_ID_169
                    3D
 Schrodinger Suite 2020-4.
 20 21  0  0  1  0            999 V2000
   -0.6554    1.0466    0.0000 O   0  0  0  0  0  0
   -0.0080   -0.0235    0.0000 C   0  0  0  0  0  0
   -0.5639   -1.1445    0.0000 O   0  5  0  0  0  0
    1.4667    0.0574    0.0000 C   0  0  0  0  0  0
    2.3042    1.1447   -0.0000 C   0  0  0  0  0  0
    3.6613    0.8123   -0.0000 N   0  0  0  0  0  0
    3.8751   -0.5084   -0.0000 C   0  0  0  0  0  0
    5.1923   -1.1541   -0.0000 C   0  0  0  0  0  0
    5.3204   -2.5636   -0.0000 C   0  0  0  0  0  0
    6.5931   -3.1672   -0.0000 C   0  0  0  0  0  0
    7.7528   -2.3703   -0.0000 C   0  0  0  0  0  0
    7.6385   -0.9680   -0.0000 C   0  0  0  0  0  0
    6.3661   -0.3641   -0.0000 C   0  0  0  0  0  0
    2.3720   -1.4377    0.0000 S   0  0  0  0  0  0
    2.0204    2.1867   -0.0000 H   0  0  0  0  0  0
    4.4515   -3.2037   -0.0000 H   0  0  0  0  0  0
    6.6786   -4.2439   -0.0000 H   0  0  0  0  0  0
    8.7283   -2.8336   -0.0000 H   0  0  0  0  0  0
    8.5273   -0.3539   -0.0000 H   0  0  0  0  0  0
    6.3032    0.7142   -0.0000 H   0  0  0  0  0  0
  1  2  2  0  0  0
  2  3  1  0  0  0
  2  4  1  0  0  0
  4 14  1  0  0  0
  4  5  2  0  0  0
  5  6  1  0  0  0
  5 15  1  0  0  0
  6  7  2  0  0  0
  7  8  1  0  0  0
  7 14  1  0  0  0
  8 13  1  0  0  0
  8  9  2  0  0  0
  9 10  1  0  0  0
  9 16  1  0  0  0
 10 11  2  0  0  0
 10 17  1  0  0  0
 11 12  1  0  0  0
 11 18  1  0  0  0
 12 13  2  0  0  0
 12 19  1  0  0  0
 13 20  1  0  0  0
M  CHG  1   3  -1
M  END
> <s_m_entry_id>
1049

> <s_m_entry_name>
Spot_Xplore.std.169

> <s_m_Source_Path>
/Volumes/cluster/ddu/2448959/Work/2023/01_Fragment_screening_lib/1_Library_Construction/Work/SpotX/Ph4_Hypo_JC2

> <s_m_Source_File>
SpotX.maegz

> <i_m_Source_File_Index>
183

> <s_m_job_name>
ligprep_SpotXplore

> <i_lp_mmshare_version>
52144

> <s_epik_input>
Tz1DKFtPSF0pYzFbY0hdbmMoczEpLWMyW2NIXVtjSF1bY0hdW2NIXVtjSF0y

> <s_epik_cmdline>
J2VwaWtfcHl0aG9uJywgJy1waHQnLCAnMS4wJywgJy1waCcsICc3LjAnLCAnLXRuJywgJzgnLCAnLW1hJywgJzIwMCcsICctaW1hZScsICc8aW5maWxlLm1hZT4nLCAnLW9tYWUnLCAnPG91dGZpbGUubWFlPic=

> <r_lp_tautomer_probability>
1

> <r_epik_Ionization_Penalty>
  0.0003

> <r_epik_Ionization_Penalty_Charging>
  0.0003

> <r_epik_Ionization_Penalty_Neutral>
  0.0000

> <r_epik_State_Penalty>
  0.0000

> <r_epik_Charging_Adjusted_Penalty>
0.000295508252099179

> <i_epik_Tot_Q>
-1

> <i_epik_Tot_abs_Q>
1

> <i_f3d_flags>
0

> <s_lp_Force_Field>
OPLS_2005

> <r_lp_Energy>
9.314623

> <b_lp_Chiralities_Consistent>
1

> <s_lp_Variant>
mol_ID_169-1

> <s_m_subgroup_title>
ligprep_SpotXplore-out1

> <s_m_subgroupid>
ligprep_SpotXplore-out1

> <b_m_subgroup_collapsed>
0

$$$$
mol_ID_170
                    3D
 Schrodinger Suite 2020-4.
 25 25  0  0  1  0            999 V2000
   -0.6746   -1.2733    0.0039 C   0  0  0  0  0  0
    0.0216    0.0015    0.0132 N   0  0  0  0  0  0
   -0.6773    1.2750    0.0028 C   0  0  0  0  0  0
    1.4187    0.0032    0.0110 C   0  0  0  0  0  0
    2.1230    0.0028   -1.2116 C   0  0  0  0  0  0
    3.5324    0.0038   -1.1774 C   0  0  0  0  0  0
    4.3357   -0.0066   -2.4611 C   0  0  0  0  0  0
    4.6088   -1.3875   -2.8894 N   0  3  0  0  0  0
    4.1786    0.0034    0.0755 C   0  0  0  0  0  0
    3.3839    0.0043    1.2392 C   0  0  0  0  0  0
    2.0341    0.0030    1.2140 N   0  0  0  0  0  0
    0.0255   -2.1096    0.0033 H   0  0  0  0  0  0
   -1.3036   -1.3534   -0.8828 H   0  0  0  0  0  0
   -1.3098   -1.3611    0.8854 H   0  0  0  0  0  0
    0.0212    2.1129    0.0017 H   0  0  0  0  0  0
   -1.3129    1.3621    0.8842 H   0  0  0  0  0  0
   -1.3063    1.3533   -0.8842 H   0  0  0  0  0  0
    1.5907    0.0023   -2.1519 H   0  0  0  0  0  0
    3.7894    0.5149   -3.2479 H   0  0  0  0  0  0
    5.2786    0.5214   -2.3160 H   0  0  0  0  0  0
    5.1419   -1.3782   -3.7470 H   0  0  0  0  0  0
    3.7345   -1.8701   -3.0398 H   0  0  0  0  0  0
    5.2562    0.0029    0.1491 H   0  0  0  0  0  0
    3.8446    0.0042    2.2160 H   0  0  0  0  0  0
    5.1344   -1.8627   -2.1695 H   0  0  0  0  0  0
  1  2  1  0  0  0
  1 12  1  0  0  0
  1 13  1  0  0  0
  1 14  1  0  0  0
  2  3  1  0  0  0
  2  4  1  0  0  0
  3 15  1  0  0  0
  3 16  1  0  0  0
  3 17  1  0  0  0
  4 11  1  0  0  0
  4  5  2  0  0  0
  5  6  1  0  0  0
  5 18  1  0  0  0
  6  7  1  0  0  0
  6  9  2  0  0  0
  7  8  1  0  0  0
  7 19  1  0  0  0
  7 20  1  0  0  0
  8 21  1  0  0  0
  8 22  1  0  0  0
  8 25  1  0  0  0
  9 10  1  0  0  0
  9 23  1  0  0  0
 10 11  2  0  0  0
 10 24  1  0  0  0
M  CHG  1   8   1
M  END
> <s_m_entry_id>
1050

> <s_m_entry_name>
Spot_Xplore.std.170

> <s_m_Source_Path>
/Volumes/cluster/ddu/2448959/Work/2023/01_Fragment_screening_lib/1_Library_Construction/Work/SpotX/Ph4_Hypo_JC2

> <s_m_Source_File>
SpotX.maegz

> <i_m_Source_File_Index>
184

> <s_m_job_name>
ligprep_SpotXplore

> <i_lp_mmshare_version>
52144

> <s_epik_input>
W0NIM11OKFtDSDNdKWMxW2NIXWMoW0NIMl1bTkgyXSlbY0hdW2NIXW4x

> <s_epik_cmdline>
J2VwaWtfcHl0aG9uJywgJy1waHQnLCAnMS4wJywgJy1waCcsICc3LjAnLCAnLXRuJywgJzgnLCAnLW1hJywgJzIwMCcsICctaW1hZScsICc8aW5maWxlLm1hZT4nLCAnLW9tYWUnLCAnPG91dGZpbGUubWFlPic=

> <r_epik_Ionization_Penalty>
  0.0728

> <r_epik_Ionization_Penalty_Charging>
  0.0708

> <r_epik_Ionization_Penalty_Neutral>
  0.0020

> <r_epik_State_Penalty>
  0.0442

> <r_epik_Charging_Adjusted_Penalty>
0.114999353116426

> <i_epik_Tot_Q>
1

> <i_epik_Tot_abs_Q>
1

> <i_f3d_flags>
0

> <s_lp_Force_Field>
OPLS_2005

> <r_lp_Energy>
6.427709

> <b_lp_Chiralities_Consistent>
1

> <s_lp_Variant>
mol_ID_170-1

> <s_m_subgroup_title>
ligprep_SpotXplore-out1

> <s_m_subgroupid>
ligprep_SpotXplore-out1

> <b_m_subgroup_collapsed>
0

$$$$
mol_ID_171
                    3D
 Schrodinger Suite 2020-4.
 25 27  0  0  1  0            999 V2000
    6.3288  -13.3173    0.9265 O   0  0  0  0  0  0
    7.4290  -12.7904    1.0720 C   0  0  0  0  0  0
    8.4697  -13.3128    1.7308 N   0  0  0  0  0  0
    9.5332  -12.5105    1.7249 C   0  0  0  0  0  0
   10.6203  -12.7203    2.2610 O   0  0  0  0  0  0
    9.1728  -11.2638    0.9285 C   0  0  1  0  0  0
    9.3486   -9.9481    1.7329 C   0  0  0  0  0  0
   10.6783   -9.3172    1.2515 C   0  0  0  0  0  0
   10.9439  -10.0038   -0.0636 C   0  0  0  0  0  0
   11.8974   -9.6430   -1.0313 C   0  0  0  0  0  0
   11.9753  -10.4135   -2.2126 C   0  0  0  0  0  0
   11.1104  -11.5164   -2.4103 C   0  0  0  0  0  0
   10.1565  -11.8648   -1.4289 C   0  0  0  0  0  0
   10.0966  -11.0911   -0.2541 C   0  0  0  0  0  0
    7.7950  -11.5898    0.6017 N   0  0  0  0  0  0
    8.4487  -14.2125    2.1881 H   0  0  0  0  0  0
    8.5368   -9.2681    1.4704 H   0  0  0  0  0  0
    9.3119  -10.0779    2.8156 H   0  0  0  0  0  0
   10.6059   -8.2354    1.1367 H   0  0  0  0  0  0
   11.4923   -9.5429    1.9411 H   0  0  0  0  0  0
   12.5517   -8.7976   -0.8771 H   0  0  0  0  0  0
   12.6997  -10.1574   -2.9718 H   0  0  0  0  0  0
   11.1807  -12.0963   -3.3188 H   0  0  0  0  0  0
    9.4945  -12.7055   -1.5748 H   0  0  0  0  0  0
    7.1989  -10.9806    0.0606 H   0  0  0  0  0  0
  1  2  2  0  0  0
  2 15  1  0  0  0
  2  3  1  0  0  0
  3  4  1  0  0  0
  3 16  1  0  0  0
  4  5  2  0  0  0
  4  6  1  0  0  0
  6 14  1  0  0  0
  6  7  1  0  0  0
  6 15  1  0  0  0
  7  8  1  0  0  0
  7 17  1  0  0  0
  7 18  1  0  0  0
  8  9  1  0  0  0
  8 19  1  0  0  0
  8 20  1  0  0  0
  9 14  2  0  0  0
  9 10  1  0  0  0
 10 11  2  0  0  0
 10 21  1  0  0  0
 11 12  1  0  0  0
 11 22  1  0  0  0
 12 13  2  0  0  0
 12 23  1  0  0  0
 13 14  1  0  0  0
 13 24  1  0  0  0
 15 25  1  0  0  0
M  END
> <s_m_entry_id>
1051

> <s_m_entry_name>
Spot_Xplore.std.171

> <s_m_Source_Path>
/Volumes/cluster/ddu/2448959/Work/2023/01_Fragment_screening_lib/1_Library_Construction/Work/SpotX/Ph4_Hypo_JC2

> <s_m_Source_File>
SpotX.maegz

> <i_m_Source_File_Index>
185

> <s_m_job_name>
ligprep_SpotXplore

> <i_lp_mmshare_version>
52144

> <s_epik_input>
Tz1DKFtOSF0xKVtOSF1DKD1PKVtDQEBdMTJjM2MoW0NIMl1bQ0gyXTIpW2NIXVtjSF1bY0hdW2NIXTM=

> <s_epik_cmdline>
J2VwaWtfcHl0aG9uJywgJy1waHQnLCAnMS4wJywgJy1waCcsICc3LjAnLCAnLXRuJywgJzgnLCAnLW1hJywgJzIwMCcsICctaW1hZScsICc8aW5maWxlLm1hZT4nLCAnLW9tYWUnLCAnPG91dGZpbGUubWFlPic=

> <r_lp_tautomer_probability>
0.99999999978137

> <r_epik_Ionization_Penalty>
  0.0237

> <r_epik_Ionization_Penalty_Charging>
  0.0000

> <r_epik_Ionization_Penalty_Neutral>
  0.0237

> <r_epik_State_Penalty>
  0.0191

> <r_epik_Charging_Adjusted_Penalty>
0.0190675574823252

> <i_epik_Tot_Q>
0

> <i_epik_Tot_abs_Q>
0

> <i_f3d_flags>
0

> <s_lp_Force_Field>
OPLS_2005

> <r_lp_Energy>
31.87388

> <b_lp_Chiralities_Consistent>
1

> <s_lp_Variant>
mol_ID_171-1

> <s_m_subgroup_title>
ligprep_SpotXplore-out1

> <s_m_subgroupid>
ligprep_SpotXplore-out1

> <b_m_subgroup_collapsed>
0

$$$$
mol_ID_172
                    3D
 Schrodinger Suite 2020-4.
 26 27  0  0  1  0            999 V2000
   -0.0181   -0.0805    0.0684 C   0  0  0  0  0  0
    1.5060    0.0028    0.0019 C   0  0  0  0  0  0
    2.1540   -1.0431   -0.0280 O   0  0  0  0  0  0
    2.1279    1.3576   -0.0229 C   0  0  0  0  0  0
    1.3471    2.5365    0.0165 C   0  0  0  0  0  0
    1.9627    3.8026   -0.0062 C   0  0  0  0  0  0
    3.3651    3.9152   -0.0684 C   0  0  0  0  0  0
    4.1559    2.7400   -0.1134 C   0  0  0  0  0  0
    3.5352    1.4742   -0.0874 C   0  0  0  0  0  0
    5.6731    2.8257   -0.1799 C   0  0  0  0  0  0
    6.1540    4.2184   -0.6067 C   0  0  0  0  0  0
    5.3741    5.3088    0.1382 C   0  0  0  0  0  0
    3.9413    5.1944   -0.0954 N   0  0  0  0  0  0
   -0.4654    0.4089   -0.7969 H   0  0  0  0  0  0
   -0.3880    0.3991    0.9748 H   0  0  0  0  0  0
   -0.3436   -1.1210    0.0767 H   0  0  0  0  0  0
    0.2693    2.4950    0.0645 H   0  0  0  0  0  0
    1.3490    4.6912    0.0238 H   0  0  0  0  0  0
    4.1543    0.5890   -0.1178 H   0  0  0  0  0  0
    6.0652    2.5889    0.8097 H   0  0  0  0  0  0
    6.0599    2.0691   -0.8635 H   0  0  0  0  0  0
    7.2259    4.3200   -0.4349 H   0  0  0  0  0  0
    5.9976    4.3425   -1.6793 H   0  0  0  0  0  0
    5.5637    5.2453    1.2102 H   0  0  0  0  0  0
    5.7057    6.2952   -0.1864 H   0  0  0  0  0  0
    3.3571    6.0035    0.0596 H   0  0  0  0  0  0
  1  2  1  0  0  0
  1 14  1  0  0  0
  1 15  1  0  0  0
  1 16  1  0  0  0
  2  3  2  0  0  0
  2  4  1  0  0  0
  4  9  1  0  0  0
  4  5  2  0  0  0
  5  6  1  0  0  0
  5 17  1  0  0  0
  6  7  2  0  0  0
  6 18  1  0  0  0
  7 13  1  0  0  0
  7  8  1  0  0  0
  8  9  2  0  0  0
  8 10  1  0  0  0
  9 19  1  0  0  0
 10 11  1  0  0  0
 10 20  1  0  0  0
 10 21  1  0  0  0
 11 12  1  0  0  0
 11 22  1  0  0  0
 11 23  1  0  0  0
 12 13  1  0  0  0
 12 24  1  0  0  0
 12 25  1  0  0  0
 13 26  1  0  0  0
M  END
> <s_m_entry_id>
1052

> <s_m_entry_name>
Spot_Xplore.std.172

> <s_m_Source_Path>
/Volumes/cluster/ddu/2448959/Work/2023/01_Fragment_screening_lib/1_Library_Construction/Work/SpotX/Ph4_Hypo_JC2

> <s_m_Source_File>
SpotX.maegz

> <i_m_Source_File_Index>
186

> <s_m_job_name>
ligprep_SpotXplore

> <i_lp_mmshare_version>
52144

> <s_epik_input>
W0NIM11DKD1PKWMoW2NIXVtjSF0xKVtjSF1jKGMxMilbQ0gyXVtDSDJdW0NIMl1bTkhdMg==

> <s_epik_cmdline>
J2VwaWtfcHl0aG9uJywgJy1waHQnLCAnMS4wJywgJy1waCcsICc3LjAnLCAnLXRuJywgJzgnLCAnLW1hJywgJzIwMCcsICctaW1hZScsICc8aW5maWxlLm1hZT4nLCAnLW9tYWUnLCAnPG91dGZpbGUubWFlPic=

> <r_lp_tautomer_probability>
1

> <r_epik_Ionization_Penalty>
  0.0001

> <r_epik_Ionization_Penalty_Charging>
  0.0000

> <r_epik_Ionization_Penalty_Neutral>
  0.0001

> <r_epik_State_Penalty>
  0.0000

> <r_epik_Charging_Adjusted_Penalty>
0

> <i_epik_Tot_Q>
0

> <i_epik_Tot_abs_Q>
0

> <i_f3d_flags>
0

> <s_lp_Force_Field>
OPLS_2005

> <r_lp_Energy>
16.174831

> <b_lp_Chiralities_Consistent>
1

> <s_lp_Variant>
mol_ID_172-1

> <s_m_subgroup_title>
ligprep_SpotXplore-out1

> <s_m_subgroupid>
ligprep_SpotXplore-out1

> <b_m_subgroup_collapsed>
0

$$$$
mol_ID_173
                    3D
 Schrodinger Suite 2020-4.
 26 27  0  0  1  0            999 V2000
   -4.3361    0.0075    0.0021 C   0  0  0  0  0  0
   -2.8215   -0.0034   -0.0026 C   0  0  0  0  0  0
   -2.1129   -1.2177    0.0830 C   0  0  0  0  0  0
   -0.7045   -1.2158    0.0824 C   0  0  0  0  0  0
    0.0235   -0.0063   -0.0024 C   0  0  0  0  0  0
    1.5010   -0.0066    0.0004 C   0  0  0  0  0  0
    2.2260    1.0004    0.6795 C   0  0  0  0  0  0
    3.6343    1.0038    0.6839 C   0  0  0  0  0  0
    4.3427   -0.0045    0.0054 C   0  0  0  0  0  0
    5.7071   -0.0025    0.0081 O   0  0  0  0  0  0
    3.6379   -1.0143   -0.6753 C   0  0  0  0  0  0
    2.2295   -1.0132   -0.6755 C   0  0  0  0  0  0
   -0.7023    1.2044   -0.0889 C   0  0  0  0  0  0
   -2.1104    1.2086   -0.0897 C   0  0  0  0  0  0
   -4.7417   -1.0046    0.0022 H   0  0  0  0  0  0
   -4.7140    0.5256   -0.8797 H   0  0  0  0  0  0
   -4.7057    0.5232    0.8888 H   0  0  0  0  0  0
   -2.6445   -2.1555    0.1520 H   0  0  0  0  0  0
   -0.1831   -2.1588    0.1571 H   0  0  0  0  0  0
    1.7025    1.7800    1.2128 H   0  0  0  0  0  0
    4.1678    1.7817    1.2104 H   0  0  0  0  0  0
    6.0787   -0.7237   -0.4762 H   0  0  0  0  0  0
    4.1731   -1.7920   -1.2003 H   0  0  0  0  0  0
    1.7086   -1.7936   -1.2103 H   0  0  0  0  0  0
   -0.1794    2.1467   -0.1630 H   0  0  0  0  0  0
   -2.6431    2.1459   -0.1575 H   0  0  0  0  0  0
  1  2  1  0  0  0
  1 15  1  0  0  0
  1 16  1  0  0  0
  1 17  1  0  0  0
  2 14  1  0  0  0
  2  3  2  0  0  0
  3  4  1  0  0  0
  3 18  1  0  0  0
  4  5  2  0  0  0
  4 19  1  0  0  0
  5  6  1  0  0  0
  5 13  1  0  0  0
  6 12  1  0  0  0
  6  7  2  0  0  0
  7  8  1  0  0  0
  7 20  1  0  0  0
  8  9  2  0  0  0
  8 21  1  0  0  0
  9 10  1  0  0  0
  9 11  1  0  0  0
 10 22  1  0  0  0
 11 12  2  0  0  0
 11 23  1  0  0  0
 12 24  1  0  0  0
 13 14  2  0  0  0
 13 25  1  0  0  0
 14 26  1  0  0  0
M  END
> <s_m_entry_id>
1053

> <s_m_entry_name>
Spot_Xplore.std.173

> <s_m_Source_Path>
/Volumes/cluster/ddu/2448959/Work/2023/01_Fragment_screening_lib/1_Library_Construction/Work/SpotX/Ph4_Hypo_JC2

> <s_m_Source_File>
SpotX.maegz

> <i_m_Source_File_Index>
187

> <s_m_job_name>
ligprep_SpotXplore

> <i_lp_mmshare_version>
52144

> <s_epik_input>
W0NIM11jMVtjSF1bY0hdYyhbY0hdW2NIXTEpLWMyW2NIXVtjSF1jKFtPSF0pW2NIXVtjSF0y

> <s_epik_cmdline>
J2VwaWtfcHl0aG9uJywgJy1waHQnLCAnMS4wJywgJy1waCcsICc3LjAnLCAnLXRuJywgJzgnLCAnLW1hJywgJzIwMCcsICctaW1hZScsICc8aW5maWxlLm1hZT4nLCAnLW9tYWUnLCAnPG91dGZpbGUubWFlPic=

> <r_lp_tautomer_probability>
1

> <r_epik_Ionization_Penalty>
  0.0007

> <r_epik_Ionization_Penalty_Charging>
  0.0000

> <r_epik_Ionization_Penalty_Neutral>
  0.0007

> <r_epik_State_Penalty>
  0.0000

> <r_epik_Charging_Adjusted_Penalty>
0

> <i_epik_Tot_Q>
0

> <i_epik_Tot_abs_Q>
0

> <i_f3d_flags>
0

> <s_lp_Force_Field>
OPLS_2005

> <r_lp_Energy>
11.208861

> <b_lp_Chiralities_Consistent>
1

> <s_lp_Variant>
mol_ID_173-1

> <s_m_subgroup_title>
ligprep_SpotXplore-out1

> <s_m_subgroupid>
ligprep_SpotXplore-out1

> <b_m_subgroup_collapsed>
0

$$$$
mol_ID_174
                    3D
 Schrodinger Suite 2020-4.
 33 35  0  0  1  0            999 V2000
   -2.0972   -3.6324    0.0007 C   0  0  0  0  0  0
   -0.6895   -3.6260    0.0038 C   0  0  0  0  0  0
    0.0152   -2.4060    0.0028 C   0  0  0  0  0  0
   -0.6833   -1.1748    0.0001 C   0  0  0  0  0  0
   -0.0099    0.0768    0.0006 C   0  0  0  0  0  0
    1.3939    0.1428   -0.0013 N   0  0  0  0  0  0
    1.9549    0.6408   -1.2531 C   0  0  0  0  0  0
    3.4886    0.5033   -1.2574 C   0  0  0  0  0  0
    4.0792    1.1186   -0.0482 N   0  3  0  0  0  0
    3.4977    0.5950    1.2077 C   0  0  0  0  0  0
    1.9642    0.7348    1.2047 C   0  0  0  0  0  0
   -0.7821    1.2630   -0.0016 C   0  0  0  0  0  0
   -2.1874    1.1785   -0.0033 C   0  0  0  0  0  0
   -2.7874   -0.0295   -0.0039 N   0  3  0  0  0  0
   -2.1043   -1.1948   -0.0023 C   0  0  0  0  0  0
   -2.8062   -2.4164   -0.0029 C   0  0  0  0  0  0
   -2.6331   -4.5706    0.0011 H   0  0  0  0  0  0
   -0.1481   -4.5609    0.0071 H   0  0  0  0  0  0
    1.0949   -2.4329    0.0052 H   0  0  0  0  0  0
    1.5301    0.0900   -2.0935 H   0  0  0  0  0  0
    1.6776    1.6878   -1.3840 H   0  0  0  0  0  0
    3.7690   -0.5507   -1.2878 H   0  0  0  0  0  0
    3.9119    0.9719   -2.1461 H   0  0  0  0  0  0
    5.0759    0.9544   -0.0459 H   0  0  0  0  0  0
    3.7772   -0.4541    1.3137 H   0  0  0  0  0  0
    3.9286    1.1275    2.0560 H   0  0  0  0  0  0
    1.6908    1.7894    1.2584 H   0  0  0  0  0  0
    1.5450    0.2501    2.0876 H   0  0  0  0  0  0
   -0.3073    2.2334   -0.0036 H   0  0  0  0  0  0
   -2.8457    2.0350   -0.0052 H   0  0  0  0  0  0
   -3.8866   -2.4287   -0.0056 H   0  0  0  0  0  0
   -3.8072   -0.0651   -0.0055 H   0  0  0  0  0  0
    3.9135    2.1141   -0.0847 H   0  0  0  0  0  0
  1 16  1  0  0  0
  1  2  2  0  0  0
  1 17  1  0  0  0
  2  3  1  0  0  0
  2 18  1  0  0  0
  3  4  2  0  0  0
  3 19  1  0  0  0
  4 15  1  0  0  0
  4  5  1  0  0  0
  5  6  1  0  0  0
  5 12  2  0  0  0
  6 11  1  0  0  0
  6  7  1  0  0  0
  7  8  1  0  0  0
  7 20  1  0  0  0
  7 21  1  0  0  0
  8  9  1  0  0  0
  8 22  1  0  0  0
  8 23  1  0  0  0
  9 10  1  0  0  0
  9 24  1  0  0  0
  9 33  1  0  0  0
 10 11  1  0  0  0
 10 25  1  0  0  0
 10 26  1  0  0  0
 11 27  1  0  0  0
 11 28  1  0  0  0
 12 13  1  0  0  0
 12 29  1  0  0  0
 13 14  2  0  0  0
 13 30  1  0  0  0
 14 15  1  0  0  0
 14 32  1  0  0  0
 15 16  2  0  0  0
 16 31  1  0  0  0
M  CHG  2   9   1  14   1
M  END
> <s_m_entry_id>
1054

> <s_m_entry_name>
Spot_Xplore.std.174

> <s_m_Source_Path>
/Volumes/cluster/ddu/2448959/Work/2023/01_Fragment_screening_lib/1_Library_Construction/Work/SpotX/Ph4_Hypo_JC2

> <s_m_Source_File>
SpotX.maegz

> <i_m_Source_File_Index>
188

> <s_m_job_name>
ligprep_SpotXplore

> <i_lp_mmshare_version>
52144

> <s_epik_input>
W2NIXTFbY0hdW2NIXVtjSF1jKGMxMiluW2NIXVtjSF1jMk4zW0NIMl1bQ0gyXVtOSF1bQ0gyXVtDSDJdMw==

> <s_epik_cmdline>
J2VwaWtfcHl0aG9uJywgJy1waHQnLCAnMS4wJywgJy1waCcsICc3LjAnLCAnLXRuJywgJzgnLCAnLW1hJywgJzIwMCcsICctaW1hZScsICc8aW5maWxlLm1hZT4nLCAnLW9tYWUnLCAnPG91dGZpbGUubWFlPic=

> <r_lp_tautomer_probability>
1

> <r_epik_Ionization_Penalty>
  0.0695

> <r_epik_Ionization_Penalty_Charging>
  0.0695

> <r_epik_Ionization_Penalty_Neutral>
  0.0000

> <r_epik_State_Penalty>
  0.0000

> <r_epik_Charging_Adjusted_Penalty>
0.069509866138559

> <i_epik_Tot_Q>
2

> <i_epik_Tot_abs_Q>
2

> <i_f3d_flags>
0

> <s_lp_Force_Field>
OPLS_2005

> <r_lp_Energy>
43.502691

> <b_lp_Chiralities_Consistent>
1

> <s_lp_Variant>
mol_ID_174-1

> <s_m_subgroup_title>
ligprep_SpotXplore-out1

> <s_m_subgroupid>
ligprep_SpotXplore-out1

> <b_m_subgroup_collapsed>
0

$$$$
mol_ID_175
                    3D
 Schrodinger Suite 2020-4.
 24 25  0  0  1  0            999 V2000
    0.0139   -0.0484    0.0254 C   0  0  0  0  0  0
    1.5278   -0.0254    0.0057 C   0  0  0  0  0  0
    2.2325    1.2078    0.0173 C   0  0  0  0  0  0
    3.6483    1.2045    0.0060 C   0  0  0  0  0  0
    4.4032    2.5218    0.0360 C   0  0  0  0  0  0
    4.2597   -0.0689   -0.0270 C   0  0  0  0  0  0
    5.6872   -0.4820   -0.0054 C   0  0  0  0  0  0
    6.6800    0.2419    0.0136 O   0  0  0  0  0  0
    5.6386   -1.8251   -0.0008 N   0  0  0  0  0  0
    4.3258   -2.3266   -0.0673 N   0  0  0  0  0  0
    4.0516   -3.3232    0.9564 C   0  0  0  0  0  0
    3.4799   -1.2154   -0.0488 C   0  0  0  0  0  0
    2.1327   -1.2391   -0.0213 N   0  0  0  0  0  0
   -0.3976    0.9613    0.0307 H   0  0  0  0  0  0
   -0.3453   -0.5670    0.9146 H   0  0  0  0  0  0
   -0.3693   -0.5666   -0.8540 H   0  0  0  0  0  0
    1.6941    2.1441    0.0412 H   0  0  0  0  0  0
    5.4836    2.4018    0.0340 H   0  0  0  0  0  0
    4.1328    3.0838    0.9302 H   0  0  0  0  0  0
    4.1345    3.1219   -0.8336 H   0  0  0  0  0  0
    6.4081   -2.4787    0.0028 H   0  0  0  0  0  0
    3.0751   -3.7800    0.7921 H   0  0  0  0  0  0
    4.0590   -2.8734    1.9503 H   0  0  0  0  0  0
    4.8016   -4.1142    0.9311 H   0  0  0  0  0  0
  1  2  1  0  0  0
  1 14  1  0  0  0
  1 15  1  0  0  0
  1 16  1  0  0  0
  2 13  1  0  0  0
  2  3  2  0  0  0
  3  4  1  0  0  0
  3 17  1  0  0  0
  4  5  1  0  0  0
  4  6  2  0  0  0
  5 18  1  0  0  0
  5 19  1  0  0  0
  5 20  1  0  0  0
  6 12  1  0  0  0
  6  7  1  0  0  0
  7  8  2  0  0  0
  7  9  1  0  0  0
  9 10  1  0  0  0
  9 21  1  0  0  0
 10 11  1  0  0  0
 10 12  1  0  0  0
 11 22  1  0  0  0
 11 23  1  0  0  0
 11 24  1  0  0  0
 12 13  2  0  0  0
M  END
> <s_m_entry_id>
1055

> <s_m_entry_name>
Spot_Xplore.std.175

> <s_m_Source_Path>
/Volumes/cluster/ddu/2448959/Work/2023/01_Fragment_screening_lib/1_Library_Construction/Work/SpotX/Ph4_Hypo_JC2

> <s_m_Source_File>
SpotX.maegz

> <i_m_Source_File_Index>
189

> <s_m_job_name>
ligprep_SpotXplore

> <i_lp_mmshare_version>
52144

> <s_epik_input>
W0NIM11jMVtjSF1jKFtDSDNdKW5jKGMxMiluKFtDSDNdKVtuSF1jMj1P

> <s_epik_cmdline>
J2VwaWtfcHl0aG9uJywgJy1waHQnLCAnMS4wJywgJy1waCcsICc3LjAnLCAnLXRuJywgJzgnLCAnLW1hJywgJzIwMCcsICctaW1hZScsICc8aW5maWxlLm1hZT4nLCAnLW9tYWUnLCAnPG91dGZpbGUubWFlPic=

> <r_epik_Ionization_Penalty>
  0.0983

> <r_epik_Ionization_Penalty_Charging>
  0.0000

> <r_epik_Ionization_Penalty_Neutral>
  0.0983

> <r_epik_State_Penalty>
  0.1569

> <r_epik_Charging_Adjusted_Penalty>
0.156875228213703

> <i_epik_Tot_Q>
0

> <i_epik_Tot_abs_Q>
0

> <i_f3d_flags>
0

> <s_lp_Force_Field>
OPLS_2005

> <r_lp_Energy>
29.422363

> <b_lp_Chiralities_Consistent>
1

> <s_lp_Variant>
mol_ID_175-1

> <s_m_subgroup_title>
ligprep_SpotXplore-out1

> <s_m_subgroupid>
ligprep_SpotXplore-out1

> <b_m_subgroup_collapsed>
0

$$$$
mol_ID_175
                    3D
 Schrodinger Suite 2020-4.
 23 24  0  0  1  0            999 V2000
    0.0522   -0.0954   -0.0000 C   0  0  0  0  0  0
    1.5659   -0.0511    0.0000 C   0  0  0  0  0  0
    2.2539    1.1911    0.0000 C   0  0  0  0  0  0
    3.6703    1.2058    0.0000 C   0  0  0  0  0  0
    4.3969    2.5397    0.0000 C   0  0  0  0  0  0
    4.3020   -0.0606    0.0000 C   0  0  0  0  0  0
    5.7425   -0.4545    0.0000 C   0  0  0  0  0  0
    6.6776    0.3428    0.0000 O   0  0  0  0  0  0
    5.7530   -1.8189    0.0000 N   0  5  0  0  0  0
    4.4275   -2.2740    0.0000 N   0  0  0  0  0  0
    3.9585   -3.6507   -0.0000 C   0  0  0  0  0  0
    3.5357   -1.2075    0.0000 C   0  0  0  0  0  0
    2.1880   -1.2553   -0.0000 N   0  0  0  0  0  0
   -0.3734    0.9084   -0.0000 H   0  0  0  0  0  0
   -0.3114   -0.6192    0.8845 H   0  0  0  0  0  0
   -0.3114   -0.6192   -0.8845 H   0  0  0  0  0  0
    1.7035    2.1205    0.0000 H   0  0  0  0  0  0
    5.4798    2.4524    0.0000 H   0  0  0  0  0  0
    4.1123    3.1141    0.8815 H   0  0  0  0  0  0
    4.1123    3.1141   -0.8815 H   0  0  0  0  0  0
    2.8712   -3.7244   -0.0000 H   0  0  0  0  0  0
    4.3325   -4.1694    0.8826 H   0  0  0  0  0  0
    4.3325   -4.1694   -0.8826 H   0  0  0  0  0  0
  1  2  1  0  0  0
  1 14  1  0  0  0
  1 15  1  0  0  0
  1 16  1  0  0  0
  2 13  1  0  0  0
  2  3  2  0  0  0
  3  4  1  0  0  0
  3 17  1  0  0  0
  4  5  1  0  0  0
  4  6  2  0  0  0
  5 18  1  0  0  0
  5 19  1  0  0  0
  5 20  1  0  0  0
  6 12  1  0  0  0
  6  7  1  0  0  0
  7  8  2  0  0  0
  7  9  1  0  0  0
  9 10  1  0  0  0
 10 11  1  0  0  0
 10 12  1  0  0  0
 11 21  1  0  0  0
 11 22  1  0  0  0
 11 23  1  0  0  0
 12 13  2  0  0  0
M  CHG  1   9  -1
M  END
> <s_m_entry_id>
1056

> <s_m_entry_name>
Spot_Xplore.std.175

> <s_m_Source_Path>
/Volumes/cluster/ddu/2448959/Work/2023/01_Fragment_screening_lib/1_Library_Construction/Work/SpotX/Ph4_Hypo_JC2

> <s_m_Source_File>
SpotX.maegz

> <i_m_Source_File_Index>
190

> <s_m_job_name>
ligprep_SpotXplore

> <i_lp_mmshare_version>
52144

> <s_epik_input>
W0NIM11jMVtjSF1jKFtDSDNdKW5jKGMxMiluKFtDSDNdKVtuSF1jMj1P

> <s_epik_cmdline>
J2VwaWtfcHl0aG9uJywgJy1waHQnLCAnMS4wJywgJy1waCcsICc3LjAnLCAnLXRuJywgJzgnLCAnLW1hJywgJzIwMCcsICctaW1hZScsICc8aW5maWxlLm1hZT4nLCAnLW9tYWUnLCAnPG91dGZpbGUubWFlPic=

> <r_epik_Ionization_Penalty>
  0.5865

> <r_epik_Ionization_Penalty_Charging>
  0.0000

> <r_epik_Ionization_Penalty_Neutral>
  0.5865

> <r_epik_State_Penalty>
  0.8640

> <r_epik_Charging_Adjusted_Penalty>
0.864048648515212

> <i_epik_Tot_Q>
-1

> <i_epik_Tot_abs_Q>
1

> <i_f3d_flags>
0

> <s_lp_Force_Field>
OPLS_2005

> <r_lp_Energy>
24.627455

> <b_lp_Chiralities_Consistent>
1

> <s_lp_Variant>
mol_ID_175-2

> <s_m_subgroup_title>
ligprep_SpotXplore-out1

> <s_m_subgroupid>
ligprep_SpotXplore-out1

> <b_m_subgroup_collapsed>
0

$$$$
mol_ID_176
                    3D
 Schrodinger Suite 2020-4.
 29 29  0  0  1  0            999 V2000
   -0.6398    0.9855   -0.2171 C   0  0  0  0  0  0
   -0.0237   -0.4086   -0.0238 C   0  0  0  0  0  0
    1.4380   -0.3864    0.0009 N   0  0  0  0  0  0
    2.0804    0.2012    1.1773 C   0  0  0  0  0  0
    3.4987   -0.3358    1.4271 C   0  0  0  0  0  0
    2.0376   -0.2166   -1.2656 C   0  0  0  0  0  0
    1.8302   -1.1948   -2.2652 C   0  0  0  0  0  0
    2.4060   -1.0539   -3.5421 C   0  0  0  0  0  0
    3.1959    0.0714   -3.8386 C   0  0  0  0  0  0
    3.4097    1.0587   -2.8571 C   0  0  0  0  0  0
    4.2615    2.2702   -3.1758 C   0  0  0  0  0  0
    2.8327    0.9136   -1.5783 C   0  0  0  0  0  0
   -1.7282    0.9273   -0.2199 H   0  0  0  0  0  0
   -0.3319    1.4298   -1.1641 H   0  0  0  0  0  0
   -0.3486    1.6651    0.5840 H   0  0  0  0  0  0
   -0.3786   -0.8337    0.9154 H   0  0  0  0  0  0
   -0.3834   -1.0789   -0.8042 H   0  0  0  0  0  0
    2.0943    1.2880    1.0948 H   0  0  0  0  0  0
    1.4678   -0.0221    2.0515 H   0  0  0  0  0  0
    3.9110    0.0872    2.3430 H   0  0  0  0  0  0
    4.1846   -0.0874    0.6175 H   0  0  0  0  0  0
    3.4916   -1.4203    1.5384 H   0  0  0  0  0  0
    1.2331   -2.0702   -2.0551 H   0  0  0  0  0  0
    2.2427   -1.8113   -4.2944 H   0  0  0  0  0  0
    3.6359    0.1738   -4.8199 H   0  0  0  0  0  0
    4.0167    3.1065   -2.5204 H   0  0  0  0  0  0
    4.1044    2.5914   -4.2060 H   0  0  0  0  0  0
    5.3174    2.0313   -3.0473 H   0  0  0  0  0  0
    3.0031    1.6868   -0.8447 H   0  0  0  0  0  0
  1  2  1  0  0  0
  1 13  1  0  0  0
  1 14  1  0  0  0
  1 15  1  0  0  0
  2  3  1  0  0  0
  2 16  1  0  0  0
  2 17  1  0  0  0
  3  4  1  0  0  0
  3  6  1  0  0  0
  4  5  1  0  0  0
  4 18  1  0  0  0
  4 19  1  0  0  0
  5 20  1  0  0  0
  5 21  1  0  0  0
  5 22  1  0  0  0
  6 12  1  0  0  0
  6  7  2  0  0  0
  7  8  1  0  0  0
  7 23  1  0  0  0
  8  9  2  0  0  0
  8 24  1  0  0  0
  9 10  1  0  0  0
  9 25  1  0  0  0
 10 11  1  0  0  0
 10 12  2  0  0  0
 11 26  1  0  0  0
 11 27  1  0  0  0
 11 28  1  0  0  0
 12 29  1  0  0  0
M  END
> <s_m_entry_id>
1057

> <s_m_entry_name>
Spot_Xplore.std.176

> <s_m_Source_Path>
/Volumes/cluster/ddu/2448959/Work/2023/01_Fragment_screening_lib/1_Library_Construction/Work/SpotX/Ph4_Hypo_JC2

> <s_m_Source_File>
SpotX.maegz

> <i_m_Source_File_Index>
191

> <s_m_job_name>
ligprep_SpotXplore

> <i_lp_mmshare_version>
52144

> <s_epik_input>
W0NIM11bQ0gyXU4oW0NIMl1bQ0gzXSljMVtjSF1bY0hdW2NIXWMoW0NIM10pW2NIXTE=

> <s_epik_cmdline>
J2VwaWtfcHl0aG9uJywgJy1waHQnLCAnMS4wJywgJy1waCcsICc3LjAnLCAnLXRuJywgJzgnLCAnLW1hJywgJzIwMCcsICctaW1hZScsICc8aW5maWxlLm1hZT4nLCAnLW9tYWUnLCAnPG91dGZpbGUubWFlPic=

> <r_epik_Ionization_Penalty>
  0.2049

> <r_epik_Ionization_Penalty_Charging>
  0.0000

> <r_epik_Ionization_Penalty_Neutral>
  0.2049

> <r_epik_State_Penalty>
  0.1948

> <r_epik_Charging_Adjusted_Penalty>
0.194792800927079

> <i_epik_Tot_Q>
0

> <i_epik_Tot_abs_Q>
0

> <i_f3d_flags>
0

> <s_lp_Force_Field>
OPLS_2005

> <r_lp_Energy>
11.493447

> <b_lp_Chiralities_Consistent>
1

> <s_lp_Variant>
mol_ID_176-1

> <s_m_subgroup_title>
ligprep_SpotXplore-out1

> <s_m_subgroupid>
ligprep_SpotXplore-out1

> <b_m_subgroup_collapsed>
0

$$$$
mol_ID_176
                    3D
 Schrodinger Suite 2020-4.
 30 30  0  0  1  0            999 V2000
   -0.5745    1.4329   -0.2165 C   0  0  0  0  0  0
   -0.0487    0.0006   -0.0426 C   0  0  0  0  0  0
    1.4283   -0.0448    0.1026 N   0  3  0  0  0  0
    1.9635   -1.4222   -0.0426 C   0  0  0  0  0  0
    3.4891   -1.4405   -0.2165 C   0  0  0  0  0  0
    1.9383    0.6765    1.3328 C   0  0  0  0  0  0
    2.7449    1.8171    1.1561 C   0  0  0  0  0  0
    3.2285    2.5010    2.2881 C   0  0  0  0  0  0
    2.9051    2.0437    3.5816 C   0  0  0  0  0  0
    2.0963    0.8999    3.7530 C   0  0  0  0  0  0
    1.7570    0.4201    5.1494 C   0  0  0  0  0  0
    1.6089    0.2106    2.6230 C   0  0  0  0  0  0
   -1.6520    1.4293   -0.3822 H   0  0  0  0  0  0
   -0.1095    1.9229   -1.0723 H   0  0  0  0  0  0
   -0.3835    2.0436    0.6663 H   0  0  0  0  0  0
   -0.5247   -0.4756    0.8154 H   0  0  0  0  0  0
   -0.3420   -0.5776   -0.9196 H   0  0  0  0  0  0
    1.6731   -2.0298    0.8155 H   0  0  0  0  0  0
    1.5161   -1.8915   -0.9197 H   0  0  0  0  0  0
    3.8449   -2.4576   -0.3822 H   0  0  0  0  0  0
    4.0012   -1.0568    0.6663 H   0  0  0  0  0  0
    3.7961   -0.8388   -1.0723 H   0  0  0  0  0  0
    2.9927    2.1676    0.1646 H   0  0  0  0  0  0
    3.8481    3.3773    2.1655 H   0  0  0  0  0  0
    3.2804    2.5744    4.4447 H   0  0  0  0  0  0
    1.1276   -0.4701    5.1239 H   0  0  0  0  0  0
    1.2241    1.1976    5.6973 H   0  0  0  0  0  0
    2.6678    0.1769    5.6973 H   0  0  0  0  0  0
    0.9894   -0.6655    2.7470 H   0  0  0  0  0  0
    1.7744    0.4447   -0.7103 H   0  0  0  0  0  0
  1  2  1  0  0  0
  1 13  1  0  0  0
  1 14  1  0  0  0
  1 15  1  0  0  0
  2  3  1  0  0  0
  2 16  1  0  0  0
  2 17  1  0  0  0
  3  4  1  0  0  0
  3  6  1  0  0  0
  3 30  1  0  0  0
  4  5  1  0  0  0
  4 18  1  0  0  0
  4 19  1  0  0  0
  5 20  1  0  0  0
  5 21  1  0  0  0
  5 22  1  0  0  0
  6 12  1  0  0  0
  6  7  2  0  0  0
  7  8  1  0  0  0
  7 23  1  0  0  0
  8  9  2  0  0  0
  8 24  1  0  0  0
  9 10  1  0  0  0
  9 25  1  0  0  0
 10 11  1  0  0  0
 10 12  2  0  0  0
 11 26  1  0  0  0
 11 27  1  0  0  0
 11 28  1  0  0  0
 12 29  1  0  0  0
M  CHG  1   3   1
M  END
> <s_m_entry_id>
1058

> <s_m_entry_name>
Spot_Xplore.std.176

> <s_m_Source_Path>
/Volumes/cluster/ddu/2448959/Work/2023/01_Fragment_screening_lib/1_Library_Construction/Work/SpotX/Ph4_Hypo_JC2

> <s_m_Source_File>
SpotX.maegz

> <i_m_Source_File_Index>
192

> <s_m_job_name>
ligprep_SpotXplore

> <i_lp_mmshare_version>
52144

> <s_epik_input>
W0NIM11bQ0gyXU4oW0NIMl1bQ0gzXSljMVtjSF1bY0hdW2NIXWMoW0NIM10pW2NIXTE=

> <s_epik_cmdline>
J2VwaWtfcHl0aG9uJywgJy1waHQnLCAnMS4wJywgJy1waCcsICc3LjAnLCAnLXRuJywgJzgnLCAnLW1hJywgJzIwMCcsICctaW1hZScsICc8aW5maWxlLm1hZT4nLCAnLW9tYWUnLCAnPG91dGZpbGUubWFlPic=

> <r_epik_Ionization_Penalty>
  0.7287

> <r_epik_Ionization_Penalty_Charging>
  0.7287

> <r_epik_Ionization_Penalty_Neutral>
  0.0000

> <r_epik_State_Penalty>
  0.7538

> <r_epik_Charging_Adjusted_Penalty>
1.48252862594054

> <i_epik_Tot_Q>
1

> <i_epik_Tot_abs_Q>
1

> <i_f3d_flags>
0

> <s_lp_Force_Field>
OPLS_2005

> <r_lp_Energy>
11.407378

> <b_lp_Chiralities_Consistent>
1

> <s_lp_Variant>
mol_ID_176-2

> <s_m_subgroup_title>
ligprep_SpotXplore-out1

> <s_m_subgroupid>
ligprep_SpotXplore-out1

> <b_m_subgroup_collapsed>
0

$$$$
mol_ID_177
                    3D
 Schrodinger Suite 2020-4.
 25 26  0  0  1  0            999 V2000
   -1.3141    1.9023    0.4201 N   0  0  0  0  0  0
   -0.6764    0.9441    0.3033 C   0  0  0  0  0  0
    0.1340   -0.2734    0.1545 C   0  0  0  0  0  0
    1.6316    0.0360    0.0084 C   0  0  0  0  0  0
    2.4474   -1.1608   -0.1562 N   0  0  0  0  0  0
    2.4264   -1.9458   -1.3971 C   0  0  0  0  0  0
    2.7166   -3.4192   -1.0442 C   0  0  0  0  0  0
    2.6774   -3.3823    0.4496 C   0  0  0  0  0  0
    2.7651   -4.4715    1.3338 C   0  0  0  0  0  0
    2.6827   -4.2112    2.7187 C   0  0  0  0  0  0
    2.5140   -2.8879    3.1892 C   0  0  0  0  0  0
    2.4277   -1.8085    2.2821 C   0  0  0  0  0  0
    2.5162   -2.0776    0.9008 C   0  0  0  0  0  0
   -0.0511   -0.8993    1.0276 H   0  0  0  0  0  0
   -0.2390   -0.8128   -0.7161 H   0  0  0  0  0  0
    1.7872    0.6750   -0.8613 H   0  0  0  0  0  0
    1.9867    0.6034    0.8689 H   0  0  0  0  0  0
    1.4462   -1.8582   -1.8661 H   0  0  0  0  0  0
    3.1614   -1.5589   -2.1032 H   0  0  0  0  0  0
    1.9659   -4.0987   -1.4488 H   0  0  0  0  0  0
    3.7050   -3.7303   -1.3841 H   0  0  0  0  0  0
    2.8872   -5.4791    0.9648 H   0  0  0  0  0  0
    2.7458   -5.0276    3.4231 H   0  0  0  0  0  0
    2.4505   -2.7010    4.2510 H   0  0  0  0  0  0
    2.2999   -0.8013    2.6495 H   0  0  0  0  0  0
  1  2  3  0  0  0
  2  3  1  0  0  0
  3  4  1  0  0  0
  3 14  1  0  0  0
  3 15  1  0  0  0
  4  5  1  0  0  0
  4 16  1  0  0  0
  4 17  1  0  0  0
  5 13  1  0  0  0
  5  6  1  0  0  0
  6  7  1  0  0  0
  6 18  1  0  0  0
  6 19  1  0  0  0
  7  8  1  0  0  0
  7 20  1  0  0  0
  7 21  1  0  0  0
  8 13  2  0  0  0
  8  9  1  0  0  0
  9 10  2  0  0  0
  9 22  1  0  0  0
 10 11  1  0  0  0
 10 23  1  0  0  0
 11 12  2  0  0  0
 11 24  1  0  0  0
 12 13  1  0  0  0
 12 25  1  0  0  0
M  END
> <s_m_entry_id>
1059

> <s_m_entry_name>
Spot_Xplore.std.177

> <s_m_Source_Path>
/Volumes/cluster/ddu/2448959/Work/2023/01_Fragment_screening_lib/1_Library_Construction/Work/SpotX/Ph4_Hypo_JC2

> <s_m_Source_File>
SpotX.maegz

> <i_m_Source_File_Index>
193

> <s_m_job_name>
ligprep_SpotXplore

> <i_lp_mmshare_version>
52144

> <s_epik_input>
TiNDW0NIMl1bQ0gyXU4oW0NIMl1bQ0gyXTEpYyhjMTIpW2NIXVtjSF1bY0hdW2NIXTI=

> <s_epik_cmdline>
J2VwaWtfcHl0aG9uJywgJy1waHQnLCAnMS4wJywgJy1waCcsICc3LjAnLCAnLXRuJywgJzgnLCAnLW1hJywgJzIwMCcsICctaW1hZScsICc8aW5maWxlLm1hZT4nLCAnLW9tYWUnLCAnPG91dGZpbGUubWFlPic=

> <r_lp_tautomer_probability>
1

> <r_epik_Ionization_Penalty>
  0.0000

> <r_epik_Ionization_Penalty_Charging>
  0.0000

> <r_epik_Ionization_Penalty_Neutral>
  0.0000

> <r_epik_State_Penalty>
  0.0000

> <r_epik_Charging_Adjusted_Penalty>
0

> <i_epik_Tot_Q>
0

> <i_epik_Tot_abs_Q>
0

> <i_f3d_flags>
0

> <s_lp_Force_Field>
OPLS_2005

> <r_lp_Energy>
18.319392

> <b_lp_Chiralities_Consistent>
1

> <s_lp_Variant>
mol_ID_177-1

> <s_m_subgroup_title>
ligprep_SpotXplore-out1

> <s_m_subgroupid>
ligprep_SpotXplore-out1

> <b_m_subgroup_collapsed>
0

$$$$
mol_ID_178
                    3D
 Schrodinger Suite 2020-4.
 24 25  0  0  1  0            999 V2000
   -0.5846    0.6623    1.0983 O   0  0  0  0  0  0
    0.0240   -0.1687    0.4231 C   0  0  0  0  0  0
   -0.5722   -1.1938   -0.2059 N   0  0  0  0  0  0
   -1.9712   -1.4736   -0.1948 C   0  0  0  0  0  0
   -2.5504   -2.1834   -1.3995 C   0  0  0  0  0  0
   -2.4010   -2.9213   -0.0976 C   0  0  0  0  0  0
    1.5132   -0.0735    0.2165 C   0  0  0  0  0  0
    2.2971   -1.2521    0.2396 C   0  0  0  0  0  0
    3.6935   -1.1925    0.0720 C   0  0  0  0  0  0
    4.3269    0.0490   -0.1133 C   0  0  0  0  0  0
    3.5617    1.2291   -0.1328 C   0  0  0  0  0  0
    2.1623    1.1772    0.0314 C   0  0  0  0  0  0
    1.4669    2.3538   -0.0115 O   0  0  0  0  0  0
    0.0112   -1.8163   -0.7458 H   0  0  0  0  0  0
   -2.6232   -0.7451    0.2851 H   0  0  0  0  0  0
   -3.5565   -1.9071   -1.7082 H   0  0  0  0  0  0
   -1.8730   -2.4520   -2.2082 H   0  0  0  0  0  0
   -1.6232   -3.6802   -0.0363 H   0  0  0  0  0  0
   -3.3074   -3.1385    0.4641 H   0  0  0  0  0  0
    1.8339   -2.2161    0.3933 H   0  0  0  0  0  0
    4.2794   -2.0998    0.0896 H   0  0  0  0  0  0
    5.3985    0.0968   -0.2395 H   0  0  0  0  0  0
    4.0545    2.1796   -0.2774 H   0  0  0  0  0  0
    2.0216    3.1087   -0.1344 H   0  0  0  0  0  0
  1  2  2  0  0  0
  2  3  1  0  0  0
  2  7  1  0  0  0
  3  4  1  0  0  0
  3 14  1  0  0  0
  4  6  1  0  0  0
  4  5  1  0  0  0
  4 15  1  0  0  0
  5  6  1  0  0  0
  5 16  1  0  0  0
  5 17  1  0  0  0
  6 18  1  0  0  0
  6 19  1  0  0  0
  7 12  1  0  0  0
  7  8  2  0  0  0
  8  9  1  0  0  0
  8 20  1  0  0  0
  9 10  2  0  0  0
  9 21  1  0  0  0
 10 11  1  0  0  0
 10 22  1  0  0  0
 11 12  2  0  0  0
 11 23  1  0  0  0
 12 13  1  0  0  0
 13 24  1  0  0  0
M  END
> <s_m_entry_id>
1060

> <s_m_entry_name>
Spot_Xplore.std.178

> <s_m_Source_Path>
/Volumes/cluster/ddu/2448959/Work/2023/01_Fragment_screening_lib/1_Library_Construction/Work/SpotX/Ph4_Hypo_JC2

> <s_m_Source_File>
SpotX.maegz

> <i_m_Source_File_Index>
194

> <s_m_job_name>
ligprep_SpotXplore

> <i_lp_mmshare_version>
52144

> <s_epik_input>
W0NIMl0xW0NIMl1bQ0hdMVtOSF1DKD1PKWMyW2NIXVtjSF1bY0hdW2NIXWMyW09IXQ==

> <s_epik_cmdline>
J2VwaWtfcHl0aG9uJywgJy1waHQnLCAnMS4wJywgJy1waCcsICc3LjAnLCAnLXRuJywgJzgnLCAnLW1hJywgJzIwMCcsICctaW1hZScsICc8aW5maWxlLm1hZT4nLCAnLW9tYWUnLCAnPG91dGZpbGUubWFlPic=

> <r_lp_tautomer_probability>
0.999999999997365

> <r_epik_Ionization_Penalty>
  0.0230

> <r_epik_Ionization_Penalty_Charging>
  0.0000

> <r_epik_Ionization_Penalty_Neutral>
  0.0230

> <r_epik_State_Penalty>
  0.0186

> <r_epik_Charging_Adjusted_Penalty>
0.0186256889554823

> <i_epik_Tot_Q>
0

> <i_epik_Tot_abs_Q>
0

> <i_f3d_flags>
0

> <s_lp_Force_Field>
OPLS_2005

> <r_lp_Energy>
24.151205

> <b_lp_Chiralities_Consistent>
1

> <s_lp_Variant>
mol_ID_178-1

> <s_m_subgroup_title>
ligprep_SpotXplore-out1

> <s_m_subgroupid>
ligprep_SpotXplore-out1

> <b_m_subgroup_collapsed>
0

$$$$
mol_ID_179
                    3D
 Schrodinger Suite 2020-4.
 23 23  0  0  1  0            999 V2000
   -0.0829   -1.4136    0.2657 N   0  0  0  0  0  0
    0.3390   -0.1534    0.4105 C   0  0  0  0  0  0
   -0.0652    0.5433    1.3402 O   0  0  0  0  0  0
    1.2121    0.2788   -0.5344 N   0  0  0  0  0  0
    1.8154   -0.5351   -1.6036 C   0  0  0  0  0  0
    3.2986   -0.7737   -1.2690 C   0  0  0  0  0  0
    4.0450    0.5689   -1.0812 C   0  0  0  0  0  0
    5.4806    0.3259   -0.5945 C   0  0  0  0  0  0
    5.6353   -0.2786    0.4902 O   0  0  0  0  0  0
    6.4046    0.7529   -1.3209 O   0  5  0  0  0  0
    3.2909    1.4967   -0.0994 C   0  0  0  0  0  0
    1.8061    1.6209   -0.4878 C   0  0  0  0  0  0
   -0.7356   -1.8013    0.9308 H   0  0  0  0  0  0
    0.2604   -1.9734   -0.5008 H   0  0  0  0  0  0
    1.3160   -1.4895   -1.7693 H   0  0  0  0  0  0
    1.7310    0.0004   -2.5504 H   0  0  0  0  0  0
    3.3641   -1.3807   -0.3644 H   0  0  0  0  0  0
    3.7673   -1.3534   -2.0652 H   0  0  0  0  0  0
    4.0908    1.0684   -2.0504 H   0  0  0  0  0  0
    3.3601    1.1129    0.9200 H   0  0  0  0  0  0
    3.7527    2.4848   -0.0892 H   0  0  0  0  0  0
    1.7129    2.0930   -1.4668 H   0  0  0  0  0  0
    1.2949    2.2853    0.2101 H   0  0  0  0  0  0
  1  2  1  0  0  0
  1 13  1  0  0  0
  1 14  1  0  0  0
  2  3  2  0  0  0
  2  4  1  0  0  0
  4 12  1  0  0  0
  4  5  1  0  0  0
  5  6  1  0  0  0
  5 15  1  0  0  0
  5 16  1  0  0  0
  6  7  1  0  0  0
  6 17  1  0  0  0
  6 18  1  0  0  0
  7  8  1  0  0  0
  7 11  1  0  0  0
  7 19  1  0  0  0
  8  9  2  0  0  0
  8 10  1  0  0  0
 11 12  1  0  0  0
 11 20  1  0  0  0
 11 21  1  0  0  0
 12 22  1  0  0  0
 12 23  1  0  0  0
M  CHG  1  10  -1
M  END
> <s_m_entry_id>
1061

> <s_m_entry_name>
Spot_Xplore.std.179

> <s_m_Source_Path>
/Volumes/cluster/ddu/2448959/Work/2023/01_Fragment_screening_lib/1_Library_Construction/Work/SpotX/Ph4_Hypo_JC2

> <s_m_Source_File>
SpotX.maegz

> <i_m_Source_File_Index>
195

> <s_m_job_name>
ligprep_SpotXplore

> <i_lp_mmshare_version>
52144

> <s_epik_input>
W05IMl1DKD1PKU4xW0NIMl1bQ0gyXVtDSF0oQyg9TylbT0hdKVtDSDJdW0NIMl0x

> <s_epik_cmdline>
J2VwaWtfcHl0aG9uJywgJy1waHQnLCAnMS4wJywgJy1waCcsICc3LjAnLCAnLXRuJywgJzgnLCAnLW1hJywgJzIwMCcsICctaW1hZScsICc8aW5maWxlLm1hZT4nLCAnLW9tYWUnLCAnPG91dGZpbGUubWFlPic=

> <r_lp_tautomer_probability>
1

> <r_epik_Ionization_Penalty>
  0.0017

> <r_epik_Ionization_Penalty_Charging>
  0.0016

> <r_epik_Ionization_Penalty_Neutral>
  0.0001

> <r_epik_State_Penalty>
  0.0000

> <r_epik_Charging_Adjusted_Penalty>
0.00162268450492189

> <i_epik_Tot_Q>
-1

> <i_epik_Tot_abs_Q>
1

> <i_f3d_flags>
0

> <s_lp_Force_Field>
OPLS_2005

> <r_lp_Energy>
26.028695

> <b_lp_Chiralities_Consistent>
1

> <s_lp_Variant>
mol_ID_179-1

> <s_m_subgroup_title>
ligprep_SpotXplore-out1

> <s_m_subgroupid>
ligprep_SpotXplore-out1

> <b_m_subgroup_collapsed>
0

$$$$
mol_ID_180
                    3D
 Schrodinger Suite 2020-4.
 17 18  0  0  1  0            999 V2000
    0.0939   -0.0538   -0.0000 N   0  0  0  0  0  0
    1.4815   -0.0356   -0.0000 C   0  0  0  0  0  0
    2.2688    1.0523   -0.0000 N   0  0  0  0  0  0
    3.5129    0.5225    0.0000 N   0  3  0  0  0  0
    3.4925   -0.8159   -0.0000 C   0  0  0  0  0  0
    4.5347   -1.7263   -0.0000 C   0  0  0  0  0  0
    4.1744   -3.0593   -0.0000 C   0  0  0  0  0  0
    2.8006   -3.4351   -0.0000 C   0  0  0  0  0  0
    1.8164   -2.4656   -0.0000 C   0  0  0  0  0  0
    2.2198   -1.1489   -0.0000 N   0  0  0  0  0  0
   -0.4424    0.8024   -0.0000 H   0  0  0  0  0  0
   -0.4276   -0.9183   -0.0000 H   0  0  0  0  0  0
    5.5644   -1.3834    0.0000 H   0  0  0  0  0  0
    4.9458   -3.8227   -0.0000 H   0  0  0  0  0  0
    2.5226   -4.4843   -0.0000 H   0  0  0  0  0  0
    0.7496   -2.6653   -0.0000 H   0  0  0  0  0  0
    4.3349    1.1130    0.0000 H   0  0  0  0  0  0
  1  2  1  0  0  0
  1 11  1  0  0  0
  1 12  1  0  0  0
  2 10  1  0  0  0
  2  3  2  0  0  0
  3  4  1  0  0  0
  4  5  2  0  0  0
  4 17  1  0  0  0
  5 10  1  0  0  0
  5  6  1  0  0  0
  6  7  2  0  0  0
  6 13  1  0  0  0
  7  8  1  0  0  0
  7 14  1  0  0  0
  8  9  2  0  0  0
  8 15  1  0  0  0
  9 10  1  0  0  0
  9 16  1  0  0  0
M  CHG  1   4   1
M  END
> <s_m_entry_id>
1062

> <s_m_entry_name>
Spot_Xplore.std.180

> <s_m_Source_Path>
/Volumes/cluster/ddu/2448959/Work/2023/01_Fragment_screening_lib/1_Library_Construction/Work/SpotX/Ph4_Hypo_JC2

> <s_m_Source_File>
SpotX.maegz

> <i_m_Source_File_Index>
196

> <s_m_job_name>
ligprep_SpotXplore

> <i_lp_mmshare_version>
52144

> <s_epik_input>
bjFuYyhbTkgyXSluKGMxMilbY0hdW2NIXVtjSF1bY0hdMg==

> <s_epik_cmdline>
J2VwaWtfcHl0aG9uJywgJy1waHQnLCAnMS4wJywgJy1waCcsICc3LjAnLCAnLXRuJywgJzgnLCAnLW1hJywgJzIwMCcsICctaW1hZScsICc8aW5maWxlLm1hZT4nLCAnLW9tYWUnLCAnPG91dGZpbGUubWFlPic=

> <r_epik_Ionization_Penalty>
  0.3383

> <r_epik_Ionization_Penalty_Charging>
  0.3383

> <r_epik_Ionization_Penalty_Neutral>
  0.0000

> <r_epik_State_Penalty>
  0.3338

> <r_epik_Charging_Adjusted_Penalty>
0.672132397506434

> <i_epik_Tot_Q>
1

> <i_epik_Tot_abs_Q>
1

> <i_f3d_flags>
0

> <s_lp_Force_Field>
OPLS_2005

> <r_lp_Energy>
23.84453

> <b_lp_Chiralities_Consistent>
1

> <s_lp_Variant>
mol_ID_180-1

> <s_m_subgroup_title>
ligprep_SpotXplore-out1

> <s_m_subgroupid>
ligprep_SpotXplore-out1

> <b_m_subgroup_collapsed>
0

$$$$
mol_ID_180
                    3D
 Schrodinger Suite 2020-4.
 16 17  0  0  1  0            999 V2000
    0.0587   -0.0378   -0.0000 N   0  0  0  0  0  0
    1.4460   -0.0179   -0.0000 C   0  0  0  0  0  0
    2.2372    1.0551    0.0000 N   0  0  0  0  0  0
    3.5556    0.6197    0.0000 N   0  0  0  0  0  0
    3.5383   -0.7167    0.0000 C   0  0  0  0  0  0
    4.5500   -1.7147    0.0000 C   0  0  0  0  0  0
    4.1947   -3.0449    0.0000 C   0  0  0  0  0  0
    2.8311   -3.4264    0.0000 C   0  0  0  0  0  0
    1.8430   -2.4698   -0.0000 C   0  0  0  0  0  0
    2.1999   -1.1524   -0.0000 N   0  0  0  0  0  0
   -0.4782    0.8177   -0.0000 H   0  0  0  0  0  0
   -0.4589   -0.9046   -0.0000 H   0  0  0  0  0  0
    5.5934   -1.4175    0.0000 H   0  0  0  0  0  0
    4.9694   -3.8047    0.0000 H   0  0  0  0  0  0
    2.5607   -4.4773    0.0000 H   0  0  0  0  0  0
    0.7843   -2.7064   -0.0000 H   0  0  0  0  0  0
  1  2  1  0  0  0
  1 11  1  0  0  0
  1 12  1  0  0  0
  2 10  1  0  0  0
  2  3  2  0  0  0
  3  4  1  0  0  0
  4  5  2  0  0  0
  5 10  1  0  0  0
  5  6  1  0  0  0
  6  7  2  0  0  0
  6 13  1  0  0  0
  7  8  1  0  0  0
  7 14  1  0  0  0
  8  9  2  0  0  0
  8 15  1  0  0  0
  9 10  1  0  0  0
  9 16  1  0  0  0
M  END
> <s_m_entry_id>
1063

> <s_m_entry_name>
Spot_Xplore.std.180

> <s_m_Source_Path>
/Volumes/cluster/ddu/2448959/Work/2023/01_Fragment_screening_lib/1_Library_Construction/Work/SpotX/Ph4_Hypo_JC2

> <s_m_Source_File>
SpotX.maegz

> <i_m_Source_File_Index>
197

> <s_m_job_name>
ligprep_SpotXplore

> <i_lp_mmshare_version>
52144

> <s_epik_input>
bjFuYyhbTkgyXSluKGMxMilbY0hdW2NIXVtjSF1bY0hdMg==

> <s_epik_cmdline>
J2VwaWtfcHl0aG9uJywgJy1waHQnLCAnMS4wJywgJy1waCcsICc3LjAnLCAnLXRuJywgJzgnLCAnLW1hJywgJzIwMCcsICctaW1hZScsICc8aW5maWxlLm1hZT4nLCAnLW9tYWUnLCAnPG91dGZpbGUubWFlPic=

> <r_epik_Ionization_Penalty>
  0.4934

> <r_epik_Ionization_Penalty_Charging>
  0.0000

> <r_epik_Ionization_Penalty_Neutral>
  0.4934

> <r_epik_State_Penalty>
  0.4990

> <r_epik_Charging_Adjusted_Penalty>
0.499019880163735

> <i_epik_Tot_Q>
0

> <i_epik_Tot_abs_Q>
0

> <i_f3d_flags>
0

> <s_lp_Force_Field>
OPLS_2005

> <r_lp_Energy>
9.302313

> <b_lp_Chiralities_Consistent>
1

> <s_lp_Variant>
mol_ID_180-2

> <s_m_subgroup_title>
ligprep_SpotXplore-out1

> <s_m_subgroupid>
ligprep_SpotXplore-out1

> <b_m_subgroup_collapsed>
0

$$$$
mol_ID_181
                    3D
 Schrodinger Suite 2020-4.
 26 27  0  0  1  0            999 V2000
    0.2005   -1.7314   -1.8288 N   0  3  0  0  0  0
   -0.6154   -0.6601   -1.2262 C   0  0  1  0  0  0
   -1.8862   -1.2526   -0.6777 C   0  0  0  0  0  0
   -2.9600   -1.7879   -1.4127 C   0  0  0  0  0  0
   -4.0656   -2.3052   -0.7019 C   0  0  0  0  0  0
   -4.0868   -2.2770    0.7128 C   0  0  0  0  0  0
   -3.0047   -1.7269    1.4348 C   0  0  0  0  0  0
   -1.9117   -1.2189    0.7110 C   0  0  0  0  0  0
   -0.6739   -0.5764    1.2718 C   0  0  0  0  0  0
    0.0574   -0.0095    0.0246 C   0  0  1  0  0  0
    1.5949   -0.1104    0.0983 C   0  0  0  0  0  0
    2.0836    0.6895    1.1535 O   0  0  0  0  0  0
   -0.3054   -2.1431   -2.5998 H   0  0  0  0  0  0
    0.3869   -2.4406   -1.1342 H   0  0  0  0  0  0
   -0.8402    0.0890   -1.9864 H   0  0  0  0  0  0
   -2.9402   -1.8066   -2.4924 H   0  0  0  0  0  0
   -4.9016   -2.7247   -1.2420 H   0  0  0  0  0  0
   -4.9390   -2.6746    1.2444 H   0  0  0  0  0  0
   -3.0191   -1.6946    2.5145 H   0  0  0  0  0  0
   -0.9195    0.2033    1.9937 H   0  0  0  0  0  0
   -0.0797   -1.3387    1.7769 H   0  0  0  0  0  0
   -0.2081    1.0483   -0.0243 H   0  0  0  0  0  0
    1.9184   -1.1401    0.2538 H   0  0  0  0  0  0
    2.0456    0.2395   -0.8309 H   0  0  0  0  0  0
    3.0268    0.6265    1.1722 H   0  0  0  0  0  0
    1.0721   -1.3473   -2.1639 H   0  0  0  0  0  0
  1  2  1  0  0  0
  1 13  1  0  0  0
  1 14  1  0  0  0
  1 26  1  0  0  0
  2 10  1  0  0  0
  2  3  1  0  0  0
  2 15  1  0  0  0
  3  8  2  0  0  0
  3  4  1  0  0  0
  4  5  2  0  0  0
  4 16  1  0  0  0
  5  6  1  0  0  0
  5 17  1  0  0  0
  6  7  2  0  0  0
  6 18  1  0  0  0
  7  8  1  0  0  0
  7 19  1  0  0  0
  8  9  1  0  0  0
  9 10  1  0  0  0
  9 20  1  0  0  0
  9 21  1  0  0  0
 10 11  1  0  0  0
 10 22  1  0  0  0
 11 12  1  0  0  0
 11 23  1  0  0  0
 11 24  1  0  0  0
 12 25  1  0  0  0
M  CHG  1   1   1
M  END
> <s_m_entry_id>
1064

> <s_m_entry_name>
Spot_Xplore.std.181

> <s_m_Source_Path>
/Volumes/cluster/ddu/2448959/Work/2023/01_Fragment_screening_lib/1_Library_Construction/Work/SpotX/Ph4_Hypo_JC2

> <s_m_Source_File>
SpotX.maegz

> <i_m_Source_File_Index>
198

> <s_m_job_name>
ligprep_SpotXplore

> <i_lp_mmshare_version>
52144

> <s_epik_input>
W05IMl1bQ0BASF0xW0NASF0oW0NIMl1bT0hdKVtDSDJdYyhjMTIpW2NIXVtjSF1bY0hdW2NIXTI=

> <s_epik_cmdline>
J2VwaWtfcHl0aG9uJywgJy1waHQnLCAnMS4wJywgJy1waCcsICc3LjAnLCAnLXRuJywgJzgnLCAnLW1hJywgJzIwMCcsICctaW1hZScsICc8aW5maWxlLm1hZT4nLCAnLW9tYWUnLCAnPG91dGZpbGUubWFlPic=

> <r_epik_Ionization_Penalty>
  0.0246

> <r_epik_Ionization_Penalty_Charging>
  0.0246

> <r_epik_Ionization_Penalty_Neutral>
  0.0000

> <r_epik_State_Penalty>
  0.0199

> <r_epik_Charging_Adjusted_Penalty>
0.0445007215735635

> <i_epik_Tot_Q>
1

> <i_epik_Tot_abs_Q>
1

> <i_f3d_flags>
0

> <s_lp_Force_Field>
OPLS_2005

> <r_lp_Energy>
20.886044

> <b_lp_Chiralities_Consistent>
1

> <s_lp_Variant>
mol_ID_181-1

> <s_m_subgroup_title>
ligprep_SpotXplore-out1

> <s_m_subgroupid>
ligprep_SpotXplore-out1

> <b_m_subgroup_collapsed>
0

$$$$
mol_ID_182
                    3D
 Schrodinger Suite 2020-4.
 22 23  0  0  1  0            999 V2000
    1.1999   -1.9231    0.4758 O   0  0  0  0  0  0
    1.1413   -0.7032    0.3411 C   0  0  0  0  0  0
   -0.1122    0.0526    0.2928 C   0  0  0  0  0  0
   -0.1134    1.3940    0.1467 C   0  0  0  0  0  0
    1.1248    2.1421    0.0311 C   0  0  0  0  0  0
    2.2761    1.4364    0.0710 C   0  0  0  0  0  0
    2.2635    0.0436    0.2247 N   0  0  0  0  0  0
    3.6626    2.0469   -0.0550 C   0  0  0  0  0  0
    3.6122    3.4821   -0.6046 C   0  0  0  0  0  0
    2.5015    4.2937    0.0760 C   0  0  0  0  0  0
    1.1187    3.6537   -0.1461 C   0  0  0  0  0  0
   -1.0509   -0.4752    0.3749 H   0  0  0  0  0  0
   -1.0563    1.9197    0.1144 H   0  0  0  0  0  0
    3.1590   -0.4222    0.2467 H   0  0  0  0  0  0
    4.1108    2.0585    0.9390 H   0  0  0  0  0  0
    4.2984    1.4203   -0.6817 H   0  0  0  0  0  0
    4.5780    3.9689   -0.4663 H   0  0  0  0  0  0
    3.4298    3.4551   -1.6796 H   0  0  0  0  0  0
    2.7065    4.3532    1.1456 H   0  0  0  0  0  0
    2.5000    5.3191   -0.2947 H   0  0  0  0  0  0
    0.7802    3.8644   -1.1610 H   0  0  0  0  0  0
    0.3863    4.0993    0.5280 H   0  0  0  0  0  0
  1  2  2  0  0  0
  2  7  1  0  0  0
  2  3  1  0  0  0
  3  4  2  0  0  0
  3 12  1  0  0  0
  4  5  1  0  0  0
  4 13  1  0  0  0
  5 11  1  0  0  0
  5  6  2  0  0  0
  6  7  1  0  0  0
  6  8  1  0  0  0
  7 14  1  0  0  0
  8  9  1  0  0  0
  8 15  1  0  0  0
  8 16  1  0  0  0
  9 10  1  0  0  0
  9 17  1  0  0  0
  9 18  1  0  0  0
 10 11  1  0  0  0
 10 19  1  0  0  0
 10 20  1  0  0  0
 11 21  1  0  0  0
 11 22  1  0  0  0
M  END
> <s_m_entry_id>
1065

> <s_m_entry_name>
Spot_Xplore.std.182

> <s_m_Source_Path>
/Volumes/cluster/ddu/2448959/Work/2023/01_Fragment_screening_lib/1_Library_Construction/Work/SpotX/Ph4_Hypo_JC2

> <s_m_Source_File>
SpotX.maegz

> <i_m_Source_File_Index>
199

> <s_m_job_name>
ligprep_SpotXplore

> <i_lp_mmshare_version>
52144

> <s_epik_input>
W2NIXTFbY0hdYyg9TylbbkhdYyhjMTIpW0NIMl1bQ0gyXVtDSDJdW0NIMl0y

> <s_epik_cmdline>
J2VwaWtfcHl0aG9uJywgJy1waHQnLCAnMS4wJywgJy1waCcsICc3LjAnLCAnLXRuJywgJzgnLCAnLW1hJywgJzIwMCcsICctaW1hZScsICc8aW5maWxlLm1hZT4nLCAnLW9tYWUnLCAnPG91dGZpbGUubWFlPic=

> <r_lp_tautomer_probability>
1

> <r_epik_Ionization_Penalty>
  0.0000

> <r_epik_Ionization_Penalty_Charging>
  0.0000

> <r_epik_Ionization_Penalty_Neutral>
  0.0000

> <r_epik_State_Penalty>
  0.0000

> <r_epik_Charging_Adjusted_Penalty>
5.23586217098809e-06

> <i_epik_Tot_Q>
0

> <i_epik_Tot_abs_Q>
0

> <i_f3d_flags>
0

> <s_lp_Force_Field>
OPLS_2005

> <r_lp_Energy>
13.64981

> <b_lp_Chiralities_Consistent>
1

> <s_lp_Variant>
mol_ID_182-1

> <s_m_subgroup_title>
ligprep_SpotXplore-out1

> <s_m_subgroupid>
ligprep_SpotXplore-out1

> <b_m_subgroup_collapsed>
0

$$$$
mol_ID_183
                    3D
 Schrodinger Suite 2020-4.
 21 21  0  0  1  0            999 V2000
   -0.5590    1.5051    0.0546 C   0  0  0  0  0  0
   -0.0354    0.0655    0.0205 C   0  0  0  0  0  0
    1.5046   -0.0005   -0.0058 C   0  0  0  0  0  0
    2.0022   -1.4020   -0.0609 N   0  0  0  0  0  0
    2.1817   -2.0180    1.1586 C   0  0  0  0  0  0
    1.9262   -1.4719    2.2337 O   0  0  0  0  0  0
    2.6957   -3.3792    1.1153 C   0  0  0  0  0  0
    2.9551   -3.9862   -0.0894 C   0  0  0  0  0  0
    3.3850   -5.1010   -0.4573 O   0  5  0  0  0  0
    2.7082   -3.2671   -1.2471 N   0  0  0  0  0  0
    2.2232   -1.9978   -1.2983 C   0  0  0  0  0  0
    1.9606   -1.3426   -2.8158 S   0  0  0  0  0  0
   -1.6487    1.5217    0.0762 H   0  0  0  0  0  0
   -0.2347    2.0616   -0.8251 H   0  0  0  0  0  0
   -0.1999    2.0334    0.9381 H   0  0  0  0  0  0
   -0.4135   -0.4727    0.8903 H   0  0  0  0  0  0
   -0.4455   -0.4409   -0.8535 H   0  0  0  0  0  0
    1.8896    0.6092   -0.8228 H   0  0  0  0  0  0
    1.8981    0.5240    0.8669 H   0  0  0  0  0  0
    2.8723   -3.9097    2.0394 H   0  0  0  0  0  0
    2.8926   -3.7377   -2.1210 H   0  0  0  0  0  0
  1  2  1  0  0  0
  1 13  1  0  0  0
  1 14  1  0  0  0
  1 15  1  0  0  0
  2  3  1  0  0  0
  2 16  1  0  0  0
  2 17  1  0  0  0
  3  4  1  0  0  0
  3 18  1  0  0  0
  3 19  1  0  0  0
  4 11  1  0  0  0
  4  5  1  0  0  0
  5  6  2  0  0  0
  5  7  1  0  0  0
  7  8  2  0  0  0
  7 20  1  0  0  0
  8  9  1  0  0  0
  8 10  1  0  0  0
 10 11  1  0  0  0
 10 21  1  0  0  0
 11 12  2  0  0  0
M  CHG  1   9  -1
M  END
> <s_m_entry_id>
1066

> <s_m_entry_name>
Spot_Xplore.std.183

> <s_m_Source_Path>
/Volumes/cluster/ddu/2448959/Work/2023/01_Fragment_screening_lib/1_Library_Construction/Work/SpotX/Ph4_Hypo_JC2

> <s_m_Source_File>
SpotX.maegz

> <i_m_Source_File_Index>
200

> <s_m_job_name>
ligprep_SpotXplore

> <i_lp_mmshare_version>
52144

> <s_epik_input>
W0NIM11bQ0gyXVtDSDJdTjFDKD1PKVtDSDJdQyg9TylbTkhdQzE9Uw==

> <s_epik_cmdline>
J2VwaWtfcHl0aG9uJywgJy1waHQnLCAnMS4wJywgJy1waCcsICc3LjAnLCAnLXRuJywgJzgnLCAnLW1hJywgJzIwMCcsICctaW1hZScsICc8aW5maWxlLm1hZT4nLCAnLW9tYWUnLCAnPG91dGZpbGUubWFlPic=

> <r_lp_tautomer_probability>
1

> <r_epik_Ionization_Penalty>
  0.0008

> <r_epik_Ionization_Penalty_Charging>
  0.0007

> <r_epik_Ionization_Penalty_Neutral>
  0.0002

> <r_epik_State_Penalty>
  0.0000

> <r_epik_Charging_Adjusted_Penalty>
0.000652366215878614

> <i_epik_Tot_Q>
-1

> <i_epik_Tot_abs_Q>
1

> <i_f3d_flags>
0

> <s_lp_Force_Field>
OPLS_2005

> <r_lp_Energy>
22.390369

> <b_lp_Chiralities_Consistent>
1

> <s_lp_Variant>
mol_ID_183-1

> <s_m_subgroup_title>
ligprep_SpotXplore-out1

> <s_m_subgroupid>
ligprep_SpotXplore-out1

> <b_m_subgroup_collapsed>
0

$$$$
mol_ID_184
                    3D
 Schrodinger Suite 2020-4.
 32 33  0  0  1  0            999 V2000
   -0.7467    1.0355    0.2689 O   0  0  0  0  0  0
   -0.0953    0.0346   -0.0346 C   0  0  0  0  0  0
    1.3520    0.1865   -0.5393 C   0  0  0  0  0  0
    1.9673    1.5084   -0.3853 N   0  0  0  0  0  0
    2.2346    1.8332    1.0239 C   0  0  0  0  0  0
    2.8197    3.2547    1.1272 C   0  0  0  0  0  0
    4.0669    3.3528    0.3433 N   0  3  0  0  0  0
    3.8402    2.9559   -1.0603 C   0  0  0  0  0  0
    3.2343    1.5406   -1.1226 C   0  0  0  0  0  0
   -0.6520   -1.3467    0.0436 C   0  0  0  0  0  0
   -1.9154   -1.5511    0.6465 C   0  0  0  0  0  0
   -2.4739   -2.8418    0.7227 C   0  0  0  0  0  0
   -1.7777   -3.9436    0.1932 C   0  0  0  0  0  0
   -0.5226   -3.7526   -0.4136 C   0  0  0  0  0  0
    0.0377   -2.4625   -0.4901 C   0  0  0  0  0  0
    1.9827   -0.5523   -0.0431 H   0  0  0  0  0  0
    1.3395   -0.0688   -1.5995 H   0  0  0  0  0  0
    1.3209    1.7937    1.6160 H   0  0  0  0  0  0
    2.9204    1.1051    1.4611 H   0  0  0  0  0  0
    2.1015    3.9914    0.7638 H   0  0  0  0  0  0
    3.0335    3.5029    2.1669 H   0  0  0  0  0  0
    4.4119    4.3015    0.3748 H   0  0  0  0  0  0
    3.1779    3.6778   -1.5408 H   0  0  0  0  0  0
    4.7891    2.9866   -1.5960 H   0  0  0  0  0  0
    3.9340    0.8043   -0.7220 H   0  0  0  0  0  0
    3.0600    1.2767   -2.1669 H   0  0  0  0  0  0
   -2.4703   -0.7205    1.0587 H   0  0  0  0  0  0
   -3.4386   -2.9856    1.1866 H   0  0  0  0  0  0
   -2.2068   -4.9331    0.2501 H   0  0  0  0  0  0
    0.0105   -4.5971   -0.8247 H   0  0  0  0  0  0
    0.9984   -2.3537   -0.9707 H   0  0  0  0  0  0
    4.7550    2.7347    0.7488 H   0  0  0  0  0  0
  1  2  2  0  0  0
  2  3  1  0  0  0
  2 10  1  0  0  0
  3  4  1  0  0  0
  3 16  1  0  0  0
  3 17  1  0  0  0
  4  9  1  0  0  0
  4  5  1  0  0  0
  5  6  1  0  0  0
  5 18  1  0  0  0
  5 19  1  0  0  0
  6  7  1  0  0  0
  6 20  1  0  0  0
  6 21  1  0  0  0
  7  8  1  0  0  0
  7 22  1  0  0  0
  7 32  1  0  0  0
  8  9  1  0  0  0
  8 23  1  0  0  0
  8 24  1  0  0  0
  9 25  1  0  0  0
  9 26  1  0  0  0
 10 15  1  0  0  0
 10 11  2  0  0  0
 11 12  1  0  0  0
 11 27  1  0  0  0
 12 13  2  0  0  0
 12 28  1  0  0  0
 13 14  1  0  0  0
 13 29  1  0  0  0
 14 15  2  0  0  0
 14 30  1  0  0  0
 15 31  1  0  0  0
M  CHG  1   7   1
M  END
> <s_m_entry_id>
1067

> <s_m_entry_name>
Spot_Xplore.std.184

> <s_m_Source_Path>
/Volumes/cluster/ddu/2448959/Work/2023/01_Fragment_screening_lib/1_Library_Construction/Work/SpotX/Ph4_Hypo_JC2

> <s_m_Source_File>
SpotX.maegz

> <i_m_Source_File_Index>
201

> <s_m_job_name>
ligprep_SpotXplore

> <i_lp_mmshare_version>
52144

> <s_epik_input>
W2NIXTFbY0hdW2NIXVtjSF1bY0hdYzFDKD1PKVtDSDJdTjJbQ0gyXVtDSDJdW05IXVtDSDJdW0NIMl0y

> <s_epik_cmdline>
J2VwaWtfcHl0aG9uJywgJy1waHQnLCAnMS4wJywgJy1waCcsICc3LjAnLCAnLXRuJywgJzgnLCAnLW1hJywgJzIwMCcsICctaW1hZScsICc8aW5maWxlLm1hZT4nLCAnLW9tYWUnLCAnPG91dGZpbGUubWFlPic=

> <r_lp_tautomer_probability>
1

> <r_epik_Ionization_Penalty>
  0.0097

> <r_epik_Ionization_Penalty_Charging>
  0.0096

> <r_epik_Ionization_Penalty_Neutral>
  0.0001

> <r_epik_State_Penalty>
  0.0000

> <r_epik_Charging_Adjusted_Penalty>
0.00957792888896971

> <i_epik_Tot_Q>
1

> <i_epik_Tot_abs_Q>
1

> <i_f3d_flags>
0

> <s_lp_Force_Field>
OPLS_2005

> <r_lp_Energy>
22.43301

> <b_lp_Chiralities_Consistent>
1

> <s_lp_Variant>
mol_ID_184-1

> <s_m_subgroup_title>
ligprep_SpotXplore-out1

> <s_m_subgroupid>
ligprep_SpotXplore-out1

> <b_m_subgroup_collapsed>
0

$$$$
mol_ID_185
                    3D
 Schrodinger Suite 2020-4.
 24 25  0  0  1  0            999 V2000
   -4.4852    2.1194   -0.1740 O   0  0  0  0  0  0
   -3.2517    2.3059   -0.2736 C   0  0  0  0  0  0
   -2.7647    3.4340   -0.5103 O   0  5  0  0  0  0
   -2.3236    1.1338   -0.1007 C   0  0  0  0  0  0
   -2.8382   -0.1548    0.1712 C   0  0  0  0  0  0
   -1.9689   -1.2479    0.3451 C   0  0  0  0  0  0
   -0.5775   -1.0661    0.2434 C   0  0  0  0  0  0
   -0.0467    0.2075   -0.0420 C   0  0  0  0  0  0
    1.3447    0.3522   -0.1244 N   0  0  0  0  0  0
    2.1823    1.0864   -0.9447 C   0  0  0  0  0  0
    3.4894    0.9055   -0.7354 N   0  0  0  0  0  0
    4.3401    1.5964   -1.5255 C   0  0  0  0  0  0
    3.8771    2.4674   -2.5317 C   0  0  0  0  0  0
    2.4783    2.5744   -2.6653 C   0  0  0  0  0  0
    1.6349    1.8797   -1.8720 N   0  0  0  0  0  0
   -0.9229    1.3044   -0.2033 C   0  0  0  0  0  0
   -3.9031   -0.3168    0.2541 H   0  0  0  0  0  0
   -2.3711   -2.2271    0.5581 H   0  0  0  0  0  0
    0.0811   -1.9113    0.3809 H   0  0  0  0  0  0
    1.8437   -0.3291    0.4280 H   0  0  0  0  0  0
    5.3966    1.4519   -1.3545 H   0  0  0  0  0  0
    4.5547    3.0208   -3.1646 H   0  0  0  0  0  0
    2.0349    3.2173   -3.4111 H   0  0  0  0  0  0
   -0.5157    2.2858   -0.3972 H   0  0  0  0  0  0
  1  2  2  0  0  0
  2  3  1  0  0  0
  2  4  1  0  0  0
  4 16  1  0  0  0
  4  5  2  0  0  0
  5  6  1  0  0  0
  5 17  1  0  0  0
  6  7  2  0  0  0
  6 18  1  0  0  0
  7  8  1  0  0  0
  7 19  1  0  0  0
  8  9  1  0  0  0
  8 16  2  0  0  0
  9 10  1  0  0  0
  9 20  1  0  0  0
 10 15  1  0  0  0
 10 11  2  0  0  0
 11 12  1  0  0  0
 12 13  2  0  0  0
 12 21  1  0  0  0
 13 14  1  0  0  0
 13 22  1  0  0  0
 14 15  2  0  0  0
 14 23  1  0  0  0
 16 24  1  0  0  0
M  CHG  1   3  -1
M  END
> <s_m_entry_id>
1068

> <s_m_entry_name>
Spot_Xplore.std.185

> <s_m_Source_Path>
/Volumes/cluster/ddu/2448959/Work/2023/01_Fragment_screening_lib/1_Library_Construction/Work/SpotX/Ph4_Hypo_JC2

> <s_m_Source_File>
SpotX.maegz

> <i_m_Source_File_Index>
202

> <s_m_job_name>
ligprep_SpotXplore

> <i_lp_mmshare_version>
52144

> <s_epik_input>
Tz1DKFtPSF0pYzFbY0hdW2NIXVtjSF1jKFtjSF0xKVtOSF1jMm5bY0hdW2NIXVtjSF1uMg==

> <s_epik_cmdline>
J2VwaWtfcHl0aG9uJywgJy1waHQnLCAnMS4wJywgJy1waCcsICc3LjAnLCAnLXRuJywgJzgnLCAnLW1hJywgJzIwMCcsICctaW1hZScsICc8aW5maWxlLm1hZT4nLCAnLW9tYWUnLCAnPG91dGZpbGUubWFlPic=

> <r_lp_tautomer_probability>
1

> <r_epik_Ionization_Penalty>
  0.0010

> <r_epik_Ionization_Penalty_Charging>
  0.0008

> <r_epik_Ionization_Penalty_Neutral>
  0.0001

> <r_epik_State_Penalty>
  0.0000

> <r_epik_Charging_Adjusted_Penalty>
0.000836317864379419

> <i_epik_Tot_Q>
-1

> <i_epik_Tot_abs_Q>
1

> <i_f3d_flags>
0

> <s_lp_Force_Field>
OPLS_2005

> <r_lp_Energy>
3.729844

> <b_lp_Chiralities_Consistent>
1

> <s_lp_Variant>
mol_ID_185-1

> <s_m_subgroup_title>
ligprep_SpotXplore-out1

> <s_m_subgroupid>
ligprep_SpotXplore-out1

> <b_m_subgroup_collapsed>
0

$$$$
mol_ID_186
                    3D
 Schrodinger Suite 2020-4.
 29 31  0  0  1  0            999 V2000
   -4.5093    0.4867    0.8587 C   0  0  0  0  0  0
   -4.6598   -0.3237   -0.2825 C   0  0  0  0  0  0
   -3.5485   -0.5931   -1.1018 C   0  0  0  0  0  0
   -2.2931   -0.0482   -0.7736 C   0  0  0  0  0  0
   -0.7578   -0.2263   -1.6156 S   0  0  0  0  0  0
   -0.0054    0.8069   -0.3866 C   0  0  0  0  0  0
    1.3573    1.1195   -0.4361 N   0  0  0  0  0  0
    2.3268    0.6290   -1.4176 C   0  0  0  0  0  0
    3.3883   -0.2655   -0.7514 C   0  0  0  0  0  0
    4.0707    0.4617    0.3394 N   0  3  0  0  0  0
    3.1254    1.0688    1.2996 C   0  0  0  0  0  0
    2.0743    1.9167    0.5608 C   0  0  0  0  0  0
   -0.8214    1.2490    0.5801 N   0  0  0  0  0  0
   -2.1154    0.7771    0.3756 C   0  0  0  0  0  0
   -3.2498    1.0299    1.1820 C   0  0  0  0  0  0
   -5.3622    0.6931    1.4885 H   0  0  0  0  0  0
   -5.6267   -0.7380   -0.5283 H   0  0  0  0  0  0
   -3.6586   -1.2146   -1.9782 H   0  0  0  0  0  0
    1.8367    0.0762   -2.2173 H   0  0  0  0  0  0
    2.8064    1.4830   -1.8979 H   0  0  0  0  0  0
    2.9213   -1.1637   -0.3448 H   0  0  0  0  0  0
    4.1279   -0.5916   -1.4828 H   0  0  0  0  0  0
    4.6897   -0.1685    0.8289 H   0  0  0  0  0  0
    2.6364    0.2767    1.8682 H   0  0  0  0  0  0
    3.6795    1.6802    2.0118 H   0  0  0  0  0  0
    2.5544    2.7608    0.0635 H   0  0  0  0  0  0
    1.3814    2.3485    1.2828 H   0  0  0  0  0  0
   -3.1496    1.6503    2.0604 H   0  0  0  0  0  0
    4.6179    1.2041   -0.0724 H   0  0  0  0  0  0
  1 15  1  0  0  0
  1  2  2  0  0  0
  1 16  1  0  0  0
  2  3  1  0  0  0
  2 17  1  0  0  0
  3  4  2  0  0  0
  3 18  1  0  0  0
  4 14  1  0  0  0
  4  5  1  0  0  0
  5  6  1  0  0  0
  6  7  1  0  0  0
  6 13  2  0  0  0
  7 12  1  0  0  0
  7  8  1  0  0  0
  8  9  1  0  0  0
  8 19  1  0  0  0
  8 20  1  0  0  0
  9 10  1  0  0  0
  9 21  1  0  0  0
  9 22  1  0  0  0
 10 11  1  0  0  0
 10 23  1  0  0  0
 10 29  1  0  0  0
 11 12  1  0  0  0
 11 24  1  0  0  0
 11 25  1  0  0  0
 12 26  1  0  0  0
 12 27  1  0  0  0
 13 14  1  0  0  0
 14 15  2  0  0  0
 15 28  1  0  0  0
M  CHG  1  10   1
M  END
> <s_m_entry_id>
1069

> <s_m_entry_name>
Spot_Xplore.std.186

> <s_m_Source_Path>
/Volumes/cluster/ddu/2448959/Work/2023/01_Fragment_screening_lib/1_Library_Construction/Work/SpotX/Ph4_Hypo_JC2

> <s_m_Source_File>
SpotX.maegz

> <i_m_Source_File_Index>
203

> <s_m_job_name>
ligprep_SpotXplore

> <i_lp_mmshare_version>
52144

> <s_epik_input>
W2NIXTFbY0hdW2NIXVtjSF1jKGMxMiluYyhzMilOM1tDSDJdW0NIMl1bTkhdW0NIMl1bQ0gyXTM=

> <s_epik_cmdline>
J2VwaWtfcHl0aG9uJywgJy1waHQnLCAnMS4wJywgJy1waCcsICc3LjAnLCAnLXRuJywgJzgnLCAnLW1hJywgJzIwMCcsICctaW1hZScsICc8aW5maWxlLm1hZT4nLCAnLW9tYWUnLCAnPG91dGZpbGUubWFlPic=

> <r_lp_tautomer_probability>
1

> <r_epik_Ionization_Penalty>
  0.0319

> <r_epik_Ionization_Penalty_Charging>
  0.0318

> <r_epik_Ionization_Penalty_Neutral>
  0.0001

> <r_epik_State_Penalty>
  0.0000

> <r_epik_Charging_Adjusted_Penalty>
0.0317696370750077

> <i_epik_Tot_Q>
1

> <i_epik_Tot_abs_Q>
1

> <i_f3d_flags>
0

> <s_lp_Force_Field>
OPLS_2005

> <r_lp_Energy>
20.94399

> <b_lp_Chiralities_Consistent>
1

> <s_lp_Variant>
mol_ID_186-1

> <s_m_subgroup_title>
ligprep_SpotXplore-out1

> <s_m_subgroupid>
ligprep_SpotXplore-out1

> <b_m_subgroup_collapsed>
0

$$$$
mol_ID_187
                    3D
 Schrodinger Suite 2020-4.
 19 20  0  0  1  0            999 V2000
   -0.0075   -0.0189    0.0225 O   0  0  0  0  0  0
    1.3568   -0.0111    0.0133 C   0  0  0  0  0  0
    2.0575    1.1996    0.1712 C   0  0  0  0  0  0
    3.4660    1.2079    0.1631 C   0  0  0  0  0  0
    4.1887    0.0017   -0.0010 C   0  0  0  0  0  0
    5.6087   -0.0143   -0.0123 N   0  0  0  0  0  0
    6.3830    0.9349    0.5213 C   0  0  0  0  0  0
    7.6780    0.6710    0.4015 N   0  0  0  0  0  0
    7.6155   -0.5318   -0.2494 C   0  0  0  0  0  0
    6.3931   -0.9941   -0.5152 N   0  0  0  0  0  0
    3.4751   -1.2080   -0.1660 C   0  0  0  0  0  0
    2.0669   -1.2146   -0.1566 C   0  0  0  0  0  0
   -0.3828    0.8400    0.1419 H   0  0  0  0  0  0
    1.5173    2.1267    0.2968 H   0  0  0  0  0  0
    3.9751    2.1530    0.2747 H   0  0  0  0  0  0
    6.0174    1.8226    1.0155 H   0  0  0  0  0  0
    8.4990   -1.0852   -0.5314 H   0  0  0  0  0  0
    4.0009   -2.1428   -0.2948 H   0  0  0  0  0  0
    1.5341   -2.1460   -0.2799 H   0  0  0  0  0  0
  1  2  1  0  0  0
  1 13  1  0  0  0
  2 12  1  0  0  0
  2  3  2  0  0  0
  3  4  1  0  0  0
  3 14  1  0  0  0
  4  5  2  0  0  0
  4 15  1  0  0  0
  5  6  1  0  0  0
  5 11  1  0  0  0
  6 10  1  0  0  0
  6  7  1  0  0  0
  7  8  2  0  0  0
  7 16  1  0  0  0
  8  9  1  0  0  0
  9 10  2  0  0  0
  9 17  1  0  0  0
 11 12  2  0  0  0
 11 18  1  0  0  0
 12 19  1  0  0  0
M  END
> <s_m_entry_id>
1070

> <s_m_entry_name>
Spot_Xplore.std.187

> <s_m_Source_Path>
/Volumes/cluster/ddu/2448959/Work/2023/01_Fragment_screening_lib/1_Library_Construction/Work/SpotX/Ph4_Hypo_JC2

> <s_m_Source_File>
SpotX.maegz

> <i_m_Source_File_Index>
204

> <s_m_job_name>
ligprep_SpotXplore

> <i_lp_mmshare_version>
52144

> <s_epik_input>
W09IXWMxW2NIXVtjSF1jKFtjSF1bY0hdMSktbjJbY0hdbltjSF1uMg==

> <s_epik_cmdline>
J2VwaWtfcHl0aG9uJywgJy1waHQnLCAnMS4wJywgJy1waCcsICc3LjAnLCAnLXRuJywgJzgnLCAnLW1hJywgJzIwMCcsICctaW1hZScsICc8aW5maWxlLm1hZT4nLCAnLW9tYWUnLCAnPG91dGZpbGUubWFlPic=

> <r_lp_tautomer_probability>
1

> <r_epik_Ionization_Penalty>
  0.0115

> <r_epik_Ionization_Penalty_Charging>
  0.0000

> <r_epik_Ionization_Penalty_Neutral>
  0.0115

> <r_epik_State_Penalty>
  0.0088

> <r_epik_Charging_Adjusted_Penalty>
0.00882670513085245

> <i_epik_Tot_Q>
0

> <i_epik_Tot_abs_Q>
0

> <i_f3d_flags>
0

> <s_lp_Force_Field>
OPLS_2005

> <r_lp_Energy>
11.378742

> <b_lp_Chiralities_Consistent>
1

> <s_lp_Variant>
mol_ID_187-1

> <s_m_subgroup_title>
ligprep_SpotXplore-out1

> <s_m_subgroupid>
ligprep_SpotXplore-out1

> <b_m_subgroup_collapsed>
0

$$$$
mol_ID_188
                    3D
 Schrodinger Suite 2020-4.
 21 22  0  0  1  0            999 V2000
    0.0061   -0.1066   -0.0000 C   0  0  0  0  0  0
    1.4599    0.0774   -0.0000 N   0  0  0  0  0  0
    2.2334    1.1936   -0.0000 C   0  0  0  0  0  0
    1.7659    2.5063   -0.0000 N   0  0  0  0  0  0
    3.5437    0.8392   -0.0000 N   0  3  0  0  0  0
    3.6181   -0.5575   -0.0000 C   0  0  0  0  0  0
    4.7181   -1.4097    0.0000 C   0  0  0  0  0  0
    4.4472   -2.7940    0.0000 C   0  0  0  0  0  0
    3.1252   -3.2855    0.0000 C   0  0  0  0  0  0
    2.0150   -2.4150    0.0000 C   0  0  0  0  0  0
    2.2898   -1.0486   -0.0000 C   0  0  0  0  0  0
   -0.4879    0.8651   -0.0000 H   0  0  0  0  0  0
   -0.2878   -0.6600    0.8924 H   0  0  0  0  0  0
   -0.2878   -0.6600   -0.8924 H   0  0  0  0  0  0
    2.3975    3.2945   -0.0000 H   0  0  0  0  0  0
    0.7773    2.7138   -0.0000 H   0  0  0  0  0  0
    5.7321   -1.0374    0.0000 H   0  0  0  0  0  0
    5.2709   -3.4933    0.0000 H   0  0  0  0  0  0
    2.9592   -4.3532    0.0000 H   0  0  0  0  0  0
    1.0054   -2.7992    0.0000 H   0  0  0  0  0  0
    4.3164    1.4922   -0.0000 H   0  0  0  0  0  0
  1  2  1  0  0  0
  1 12  1  0  0  0
  1 13  1  0  0  0
  1 14  1  0  0  0
  2 11  1  0  0  0
  2  3  1  0  0  0
  3  4  1  0  0  0
  3  5  2  0  0  0
  4 15  1  0  0  0
  4 16  1  0  0  0
  5  6  1  0  0  0
  5 21  1  0  0  0
  6 11  2  0  0  0
  6  7  1  0  0  0
  7  8  2  0  0  0
  7 17  1  0  0  0
  8  9  1  0  0  0
  8 18  1  0  0  0
  9 10  2  0  0  0
  9 19  1  0  0  0
 10 11  1  0  0  0
 10 20  1  0  0  0
M  CHG  1   5   1
M  END
> <s_m_entry_id>
1071

> <s_m_entry_name>
Spot_Xplore.std.188

> <s_m_Source_Path>
/Volumes/cluster/ddu/2448959/Work/2023/01_Fragment_screening_lib/1_Library_Construction/Work/SpotX/Ph4_Hypo_JC2

> <s_m_Source_File>
SpotX.maegz

> <i_m_Source_File_Index>
205

> <s_m_job_name>
ligprep_SpotXplore

> <i_lp_mmshare_version>
52144

> <s_epik_input>
W05IMl1jKG4xKW4oW0NIM10pYyhjMTIpW2NIXVtjSF1bY0hdW2NIXTI=

> <s_epik_cmdline>
J2VwaWtfcHl0aG9uJywgJy1waHQnLCAnMS4wJywgJy1waCcsICc3LjAnLCAnLXRuJywgJzgnLCAnLW1hJywgJzIwMCcsICctaW1hZScsICc8aW5maWxlLm1hZT4nLCAnLW9tYWUnLCAnPG91dGZpbGUubWFlPic=

> <r_epik_Ionization_Penalty>
  0.2644

> <r_epik_Ionization_Penalty_Charging>
  0.2644

> <r_epik_Ionization_Penalty_Neutral>
  0.0000

> <r_epik_State_Penalty>
  0.2562

> <r_epik_Charging_Adjusted_Penalty>
0.520583766913017

> <i_epik_Tot_Q>
1

> <i_epik_Tot_abs_Q>
1

> <i_f3d_flags>
0

> <s_lp_Force_Field>
OPLS_2005

> <r_lp_Energy>
13.505615

> <b_lp_Chiralities_Consistent>
1

> <s_lp_Variant>
mol_ID_188-1

> <s_m_subgroup_title>
ligprep_SpotXplore-out1

> <s_m_subgroupid>
ligprep_SpotXplore-out1

> <b_m_subgroup_collapsed>
0

$$$$
mol_ID_188
                    3D
 Schrodinger Suite 2020-4.
 20 21  0  0  1  0            999 V2000
   -0.0191   -0.0454   -0.0000 C   0  0  0  0  0  0
    1.4314    0.0573   -0.0000 N   0  0  0  0  0  0
    2.2104    1.1661   -0.0000 C   0  0  0  0  0  0
    1.6311    2.4262   -0.0000 N   0  0  0  0  0  0
    3.5266    0.9692   -0.0000 N   0  0  0  0  0  0
    3.6159   -0.4105   -0.0000 C   0  0  0  0  0  0
    4.7476   -1.2571    0.0000 C   0  0  0  0  0  0
    4.5905   -2.6586    0.0000 C   0  0  0  0  0  0
    3.3030   -3.2335    0.0000 C   0  0  0  0  0  0
    2.1613   -2.4091    0.0000 C   0  0  0  0  0  0
    2.3227   -1.0107   -0.0000 C   0  0  0  0  0  0
   -0.4923    0.9360   -0.0000 H   0  0  0  0  0  0
   -0.3446   -0.5900    0.8866 H   0  0  0  0  0  0
   -0.3446   -0.5900   -0.8866 H   0  0  0  0  0  0
    2.1956    3.2636   -0.0000 H   0  0  0  0  0  0
    0.6288    2.5473   -0.0000 H   0  0  0  0  0  0
    5.7384   -0.8275    0.0000 H   0  0  0  0  0  0
    5.4625   -3.2961    0.0000 H   0  0  0  0  0  0
    3.1926   -4.3081    0.0000 H   0  0  0  0  0  0
    1.1736   -2.8459    0.0000 H   0  0  0  0  0  0
  1  2  1  0  0  0
  1 12  1  0  0  0
  1 13  1  0  0  0
  1 14  1  0  0  0
  2 11  1  0  0  0
  2  3  1  0  0  0
  3  4  1  0  0  0
  3  5  2  0  0  0
  4 15  1  0  0  0
  4 16  1  0  0  0
  5  6  1  0  0  0
  6 11  2  0  0  0
  6  7  1  0  0  0
  7  8  2  0  0  0
  7 17  1  0  0  0
  8  9  1  0  0  0
  8 18  1  0  0  0
  9 10  2  0  0  0
  9 19  1  0  0  0
 10 11  1  0  0  0
 10 20  1  0  0  0
M  END
> <s_m_entry_id>
1072

> <s_m_entry_name>
Spot_Xplore.std.188

> <s_m_Source_Path>
/Volumes/cluster/ddu/2448959/Work/2023/01_Fragment_screening_lib/1_Library_Construction/Work/SpotX/Ph4_Hypo_JC2

> <s_m_Source_File>
SpotX.maegz

> <i_m_Source_File_Index>
206

> <s_m_job_name>
ligprep_SpotXplore

> <i_lp_mmshare_version>
52144

> <s_epik_input>
W05IMl1jKG4xKW4oW0NIM10pYyhjMTIpW2NIXVtjSF1bY0hdW2NIXTI=

> <s_epik_cmdline>
J2VwaWtfcHl0aG9uJywgJy1waHQnLCAnMS4wJywgJy1waCcsICc3LjAnLCAnLXRuJywgJzgnLCAnLW1hJywgJzIwMCcsICctaW1hZScsICc8aW5maWxlLm1hZT4nLCAnLW9tYWUnLCAnPG91dGZpbGUubWFlPic=

> <r_epik_Ionization_Penalty>
  0.6054

> <r_epik_Ionization_Penalty_Charging>
  0.0000

> <r_epik_Ionization_Penalty_Neutral>
  0.6054

> <r_epik_State_Penalty>
  0.6202

> <r_epik_Charging_Adjusted_Penalty>
0.620165971515014

> <i_epik_Tot_Q>
0

> <i_epik_Tot_abs_Q>
0

> <i_f3d_flags>
0

> <s_lp_Force_Field>
OPLS_2005

> <r_lp_Energy>
5.842179

> <b_lp_Chiralities_Consistent>
1

> <s_lp_Variant>
mol_ID_188-2

> <s_m_subgroup_title>
ligprep_SpotXplore-out1

> <s_m_subgroupid>
ligprep_SpotXplore-out1

> <b_m_subgroup_collapsed>
0

$$$$
mol_ID_189
                    3D
 Schrodinger Suite 2020-4.
 20 22  0  0  1  0            999 V2000
    1.1982    3.3913    0.0098 O   0  0  0  0  0  0
    1.2106    2.1623    0.0027 C   0  0  0  0  0  0
    2.3338    1.3987   -0.0127 N   0  0  0  0  0  0
    2.3846   -0.0003   -0.0211 N   0  0  0  0  0  0
    1.2938   -0.7082   -0.0144 C   0  0  0  0  0  0
    0.0016   -0.0153    0.0023 C   0  0  0  0  0  0
   -0.0091    1.3448    0.0101 C   0  0  0  0  0  0
   -1.2887    1.8325    0.0255 O   0  0  0  0  0  0
   -2.1246    0.7208    0.0275 C   0  0  0  0  0  0
   -3.5294    0.7158    0.0413 C   0  0  0  0  0  0
   -4.2004   -0.5222    0.0409 C   0  0  0  0  0  0
   -3.4630   -1.7254    0.0268 C   0  0  0  0  0  0
   -2.0514   -1.7043    0.0130 C   0  0  0  0  0  0
   -1.3504   -0.4760    0.0130 C   0  0  0  0  0  0
    3.2384    1.8475   -0.0191 H   0  0  0  0  0  0
    1.3324   -1.7976   -0.0209 H   0  0  0  0  0  0
   -4.0826    1.6433    0.0520 H   0  0  0  0  0  0
   -5.2801   -0.5514    0.0514 H   0  0  0  0  0  0
   -3.9843   -2.6714    0.0266 H   0  0  0  0  0  0
   -1.5018   -2.6340    0.0023 H   0  0  0  0  0  0
  1  2  2  0  0  0
  2  7  1  0  0  0
  2  3  1  0  0  0
  3  4  1  0  0  0
  3 15  1  0  0  0
  4  5  2  0  0  0
  5  6  1  0  0  0
  5 16  1  0  0  0
  6 14  1  0  0  0
  6  7  2  0  0  0
  7  8  1  0  0  0
  8  9  1  0  0  0
  9 14  1  0  0  0
  9 10  2  0  0  0
 10 11  1  0  0  0
 10 17  1  0  0  0
 11 12  2  0  0  0
 11 18  1  0  0  0
 12 13  1  0  0  0
 12 19  1  0  0  0
 13 14  2  0  0  0
 13 20  1  0  0  0
M  END
> <s_m_entry_id>
1073

> <s_m_entry_name>
Spot_Xplore.std.189

> <s_m_Source_Path>
/Volumes/cluster/ddu/2448959/Work/2023/01_Fragment_screening_lib/1_Library_Construction/Work/SpotX/Ph4_Hypo_JC2

> <s_m_Source_File>
SpotX.maegz

> <i_m_Source_File_Index>
207

> <s_m_job_name>
ligprep_SpotXplore

> <i_lp_mmshare_version>
52144

> <s_epik_input>
W2NIXTFuW25IXWMoPU8pYyhjMTIpb2MzYzJbY0hdW2NIXVtjSF1bY0hdMw==

> <s_epik_cmdline>
J2VwaWtfcHl0aG9uJywgJy1waHQnLCAnMS4wJywgJy1waCcsICc3LjAnLCAnLXRuJywgJzgnLCAnLW1hJywgJzIwMCcsICctaW1hZScsICc8aW5maWxlLm1hZT4nLCAnLW9tYWUnLCAnPG91dGZpbGUubWFlPic=

> <r_lp_tautomer_probability>
1

> <r_epik_Ionization_Penalty>
  0.0032

> <r_epik_Ionization_Penalty_Charging>
  0.0032

> <r_epik_Ionization_Penalty_Neutral>
  0.0000

> <r_epik_State_Penalty>
  0.0000

> <r_epik_Charging_Adjusted_Penalty>
0.00323811731980087

> <i_epik_Tot_Q>
0

> <i_epik_Tot_abs_Q>
0

> <i_f3d_flags>
0

> <s_lp_Force_Field>
OPLS_2005

> <r_lp_Energy>
24.790767

> <b_lp_Chiralities_Consistent>
1

> <s_lp_Variant>
mol_ID_189-1

> <s_m_subgroup_title>
ligprep_SpotXplore-out1

> <s_m_subgroupid>
ligprep_SpotXplore-out1

> <b_m_subgroup_collapsed>
0

$$$$
mol_ID_190
                    3D
 Schrodinger Suite 2020-4.
 23 24  0  0  1  0            999 V2000
   -0.1148   -0.1133   -0.0533 C   0  0  0  0  0  0
    1.4292   -0.0128    0.0013 C   0  0  0  0  0  0
    2.0616   -1.4108    0.0150 C   0  0  0  0  0  0
    1.8971    0.6340   -1.1604 O   0  0  0  0  0  0
    1.7889    1.9950   -1.2520 C   0  0  0  0  0  0
    1.8999    2.5757   -2.3307 O   0  0  0  0  0  0
    1.5964    2.7073    0.0375 C   0  0  0  0  0  0
    1.4246    4.1077    0.0826 C   0  0  0  0  0  0
    1.2960    4.7674    1.3207 C   0  0  0  0  0  0
    1.0657    6.6597    1.3440 Br  0  0  0  0  0  0
    1.3465    4.0255    2.5218 C   0  0  0  0  0  0
    1.2284    4.6450    3.7332 O   0  5  0  0  0  0
    1.5202    2.6279    2.4755 C   0  0  0  0  0  0
    1.6325    1.9686    1.2363 C   0  0  0  0  0  0
    1.7903    0.6079    1.2025 O   0  0  0  0  0  0
   -0.5792    0.8730   -0.0603 H   0  0  0  0  0  0
   -0.4810   -0.6585    0.8171 H   0  0  0  0  0  0
   -0.4219   -0.6463   -0.9536 H   0  0  0  0  0  0
    3.1482   -1.3265    0.0560 H   0  0  0  0  0  0
    1.7843   -1.9593   -0.8859 H   0  0  0  0  0  0
    1.7197   -1.9685    0.8876 H   0  0  0  0  0  0
    1.3979    4.6871   -0.8288 H   0  0  0  0  0  0
    1.5568    2.0567    3.3917 H   0  0  0  0  0  0
  1  2  1  0  0  0
  1 16  1  0  0  0
  1 17  1  0  0  0
  1 18  1  0  0  0
  2 15  1  0  0  0
  2  3  1  0  0  0
  2  4  1  0  0  0
  3 19  1  0  0  0
  3 20  1  0  0  0
  3 21  1  0  0  0
  4  5  1  0  0  0
  5  6  2  0  0  0
  5  7  1  0  0  0
  7 14  2  0  0  0
  7  8  1  0  0  0
  8  9  2  0  0  0
  8 22  1  0  0  0
  9 10  1  0  0  0
  9 11  1  0  0  0
 11 12  1  0  0  0
 11 13  2  0  0  0
 13 14  1  0  0  0
 13 23  1  0  0  0
 14 15  1  0  0  0
M  CHG  1  12  -1
M  END
> <s_m_entry_id>
1074

> <s_m_entry_name>
Spot_Xplore.std.190

> <s_m_Source_Path>
/Volumes/cluster/ddu/2448959/Work/2023/01_Fragment_screening_lib/1_Library_Construction/Work/SpotX/Ph4_Hypo_JC2

> <s_m_Source_File>
SpotX.maegz

> <i_m_Source_File_Index>
208

> <s_m_job_name>
ligprep_SpotXplore

> <i_lp_mmshare_version>
52144

> <s_epik_input>
Tz1DMU9DKFtDSDNdKShbQ0gzXSlPYyhjMTIpW2NIXWMoW09IXSljKEJyKVtjSF0y

> <s_epik_cmdline>
J2VwaWtfcHl0aG9uJywgJy1waHQnLCAnMS4wJywgJy1waCcsICc3LjAnLCAnLXRuJywgJzgnLCAnLW1hJywgJzIwMCcsICctaW1hZScsICc8aW5maWxlLm1hZT4nLCAnLW9tYWUnLCAnPG91dGZpbGUubWFlPic=

> <r_epik_Ionization_Penalty>
  0.3310

> <r_epik_Ionization_Penalty_Charging>
  0.3310

> <r_epik_Ionization_Penalty_Neutral>
  0.0000

> <r_epik_State_Penalty>
  0.3261

> <r_epik_Charging_Adjusted_Penalty>
0.657032348463625

> <i_epik_Tot_Q>
-1

> <i_epik_Tot_abs_Q>
1

> <i_f3d_flags>
0

> <s_lp_Force_Field>
OPLS_2005

> <r_lp_Energy>
10.829698

> <b_lp_Chiralities_Consistent>
1

> <s_lp_Variant>
mol_ID_190-1

> <s_epik_Chemistry_Notes>
This compound has an ester and may undergo hydrolysis at high or low pH.

> <s_m_subgroup_title>
ligprep_SpotXplore-out1

> <s_m_subgroupid>
ligprep_SpotXplore-out1

> <b_m_subgroup_collapsed>
0

$$$$
mol_ID_190
                    3D
 Schrodinger Suite 2020-4.
 24 25  0  0  1  0            999 V2000
   -0.0219    0.0725    0.0072 C   0  0  0  0  0  0
    1.5077   -0.0495    0.0002 C   0  0  0  0  0  0
    1.9358   -1.5371   -0.0192 C   0  0  0  0  0  0
    1.9603    0.5833   -1.1753 O   0  0  0  0  0  0
    3.2769    0.9423   -1.2723 C   0  0  0  0  0  0
    3.7882    1.2213   -2.3556 O   0  0  0  0  0  0
    4.0101    1.0319    0.0170 C   0  0  0  0  0  0
    5.3855    1.3472    0.0574 C   0  0  0  0  0  0
    6.0463    1.4768    1.2947 C   0  0  0  0  0  0
    7.9028    1.9040    1.3226 Br  0  0  0  0  0  0
    5.3303    1.2983    2.4979 C   0  0  0  0  0  0
    5.9570    1.4260    3.7041 O   0  0  0  0  0  0
    3.9570    0.9856    2.4571 C   0  0  0  0  0  0
    3.3009    0.8408    1.2192 C   0  0  0  0  0  0
    1.9676    0.5270    1.1899 O   0  0  0  0  0  0
   -0.3107    1.1241    0.0241 H   0  0  0  0  0  0
   -0.4341   -0.4186    0.8891 H   0  0  0  0  0  0
   -0.4414   -0.3937   -0.8853 H   0  0  0  0  0  0
    3.0210   -1.6403   -0.0210 H   0  0  0  0  0  0
    1.5404   -2.0272   -0.9096 H   0  0  0  0  0  0
    1.5439   -2.0463    0.8618 H   0  0  0  0  0  0
    5.9410    1.4999   -0.8567 H   0  0  0  0  0  0
    5.3798    1.2867    4.4391 H   0  0  0  0  0  0
    3.4051    0.8454    3.3751 H   0  0  0  0  0  0
  1  2  1  0  0  0
  1 16  1  0  0  0
  1 17  1  0  0  0
  1 18  1  0  0  0
  2 15  1  0  0  0
  2  3  1  0  0  0
  2  4  1  0  0  0
  3 19  1  0  0  0
  3 20  1  0  0  0
  3 21  1  0  0  0
  4  5  1  0  0  0
  5  6  2  0  0  0
  5  7  1  0  0  0
  7 14  2  0  0  0
  7  8  1  0  0  0
  8  9  2  0  0  0
  8 22  1  0  0  0
  9 10  1  0  0  0
  9 11  1  0  0  0
 11 12  1  0  0  0
 11 13  2  0  0  0
 12 23  1  0  0  0
 13 14  1  0  0  0
 13 24  1  0  0  0
 14 15  1  0  0  0
M  END
> <s_m_entry_id>
1075

> <s_m_entry_name>
Spot_Xplore.std.190

> <s_m_Source_Path>
/Volumes/cluster/ddu/2448959/Work/2023/01_Fragment_screening_lib/1_Library_Construction/Work/SpotX/Ph4_Hypo_JC2

> <s_m_Source_File>
SpotX.maegz

> <i_m_Source_File_Index>
209

> <s_m_job_name>
ligprep_SpotXplore

> <i_lp_mmshare_version>
52144

> <s_epik_input>
Tz1DMU9DKFtDSDNdKShbQ0gzXSlPYyhjMTIpW2NIXWMoW09IXSljKEJyKVtjSF0y

> <s_epik_cmdline>
J2VwaWtfcHl0aG9uJywgJy1waHQnLCAnMS4wJywgJy1waCcsICc3LjAnLCAnLXRuJywgJzgnLCAnLW1hJywgJzIwMCcsICctaW1hZScsICc8aW5maWxlLm1hZT4nLCAnLW9tYWUnLCAnPG91dGZpbGUubWFlPic=

> <r_epik_Ionization_Penalty>
  0.5028

> <r_epik_Ionization_Penalty_Charging>
  0.0000

> <r_epik_Ionization_Penalty_Neutral>
  0.5028

> <r_epik_State_Penalty>
  0.5094

> <r_epik_Charging_Adjusted_Penalty>
0.509427281962678

> <i_epik_Tot_Q>
0

> <i_epik_Tot_abs_Q>
0

> <i_f3d_flags>
0

> <s_lp_Force_Field>
OPLS_2005

> <r_lp_Energy>
11.135642

> <b_lp_Chiralities_Consistent>
1

> <s_lp_Variant>
mol_ID_190-2

> <s_epik_Chemistry_Notes>
This compound has an ester and may undergo hydrolysis at high or low pH.

> <s_m_subgroup_title>
ligprep_SpotXplore-out1

> <s_m_subgroupid>
ligprep_SpotXplore-out1

> <b_m_subgroup_collapsed>
0

$$$$
mol_ID_191
                    3D
 Schrodinger Suite 2020-4.
 29 30  0  0  1  0            999 V2000
   -0.2805    2.5185   -0.0298 C   0  0  0  0  0  0
   -0.8361    1.1315   -0.0808 C   0  0  0  0  0  0
   -2.1327    0.7100   -0.1721 C   0  0  0  0  0  0
   -2.1326   -0.7100   -0.1720 C   0  0  0  0  0  0
   -0.8362   -1.1314   -0.0810 C   0  0  0  0  0  0
   -0.2805   -2.5184   -0.0298 C   0  0  0  0  0  0
   -0.0273    0.0000   -0.0313 N   0  0  0  0  0  0
    1.4299   -0.0000    0.0692 C   0  0  0  0  0  0
    1.9730    0.0000    1.4994 C   0  0  0  0  0  0
    1.1141   -0.0000    2.6259 C   0  0  0  0  0  0
    1.6425   -0.0001    3.9307 C   0  0  0  0  0  0
    3.0349   -0.0000    4.1275 C   0  0  0  0  0  0
    3.8981    0.0000    3.0168 C   0  0  0  0  0  0
    3.3738    0.0000    1.7089 C   0  0  0  0  0  0
    4.4742    0.0001    0.3753 Cl  0  0  0  0  0  0
   -1.0811    3.2558    0.0312 H   0  0  0  0  0  0
    0.3056    2.7366   -0.9227 H   0  0  0  0  0  0
    0.3610    2.6518    0.8416 H   0  0  0  0  0  0
   -2.9950    1.3579   -0.2286 H   0  0  0  0  0  0
   -2.9949   -1.3579   -0.2286 H   0  0  0  0  0  0
   -1.0811   -3.2558    0.0312 H   0  0  0  0  0  0
    0.3608   -2.6517    0.8418 H   0  0  0  0  0  0
    0.3058   -2.7366   -0.9225 H   0  0  0  0  0  0
    1.8190   -0.8697   -0.4602 H   0  0  0  0  0  0
    1.8190    0.8697   -0.4603 H   0  0  0  0  0  0
    0.0407   -0.0001    2.5111 H   0  0  0  0  0  0
    0.9772   -0.0001    4.7815 H   0  0  0  0  0  0
    3.4405   -0.0001    5.1285 H   0  0  0  0  0  0
    4.9675    0.0000    3.1695 H   0  0  0  0  0  0
  1  2  1  0  0  0
  1 16  1  0  0  0
  1 17  1  0  0  0
  1 18  1  0  0  0
  2  7  1  0  0  0
  2  3  2  0  0  0
  3  4  1  0  0  0
  3 19  1  0  0  0
  4  5  2  0  0  0
  4 20  1  0  0  0
  5  6  1  0  0  0
  5  7  1  0  0  0
  6 21  1  0  0  0
  6 22  1  0  0  0
  6 23  1  0  0  0
  7  8  1  0  0  0
  8  9  1  0  0  0
  8 24  1  0  0  0
  8 25  1  0  0  0
  9 14  1  0  0  0
  9 10  2  0  0  0
 10 11  1  0  0  0
 10 26  1  0  0  0
 11 12  2  0  0  0
 11 27  1  0  0  0
 12 13  1  0  0  0
 12 28  1  0  0  0
 13 14  2  0  0  0
 13 29  1  0  0  0
 14 15  1  0  0  0
M  END
> <s_m_entry_id>
1076

> <s_m_entry_name>
Spot_Xplore.std.191

> <s_m_Source_Path>
/Volumes/cluster/ddu/2448959/Work/2023/01_Fragment_screening_lib/1_Library_Construction/Work/SpotX/Ph4_Hypo_JC2

> <s_m_Source_File>
SpotX.maegz

> <i_m_Source_File_Index>
210

> <s_m_job_name>
ligprep_SpotXplore

> <i_lp_mmshare_version>
52144

> <s_epik_input>
W0NIM11jMVtjSF1bY0hdYyhbQ0gzXSluMVtDSDJdYzJbY0hdW2NIXVtjSF1bY0hdYzJDbA==

> <s_epik_cmdline>
J2VwaWtfcHl0aG9uJywgJy1waHQnLCAnMS4wJywgJy1waCcsICc3LjAnLCAnLXRuJywgJzgnLCAnLW1hJywgJzIwMCcsICctaW1hZScsICc8aW5maWxlLm1hZT4nLCAnLW9tYWUnLCAnPG91dGZpbGUubWFlPic=

> <r_lp_tautomer_probability>
1

> <r_epik_Ionization_Penalty>
  0.0000

> <r_epik_Ionization_Penalty_Charging>
  0.0000

> <r_epik_Ionization_Penalty_Neutral>
  0.0000

> <r_epik_State_Penalty>
  0.0000

> <r_epik_Charging_Adjusted_Penalty>
0

> <i_epik_Tot_Q>
0

> <i_epik_Tot_abs_Q>
0

> <i_f3d_flags>
0

> <s_lp_Force_Field>
OPLS_2005

> <r_lp_Energy>
8.490108

> <b_lp_Chiralities_Consistent>
1

> <s_lp_Variant>
mol_ID_191-1

> <s_m_subgroup_title>
ligprep_SpotXplore-out1

> <s_m_subgroupid>
ligprep_SpotXplore-out1

> <b_m_subgroup_collapsed>
0

$$$$
mol_ID_192
                    3D
 Schrodinger Suite 2020-4.
 12 13  0  0  1  0            999 V2000
   -1.3359   -1.5653   -7.7560 Cl  0  0  0  0  0  0
   -0.9595   -1.1840   -6.1164 C   0  0  0  0  0  0
   -0.8875   -2.2385   -5.1781 C   0  0  0  0  0  0
   -0.5818   -1.9610   -3.8290 C   0  0  0  0  0  0
   -0.3598   -0.6038   -3.4889 C   0  0  0  0  0  0
   -0.0592    0.0516   -2.3739 N   0  0  0  0  0  0
    0.0155    1.3827   -2.7437 N   0  0  0  0  0  0
   -0.2198    1.5728   -4.0061 N   0  0  0  0  0  0
   -0.4629    0.3383   -4.5179 N   0  0  0  0  0  0
   -0.7492    0.1151   -5.8018 N   0  0  0  0  0  0
   -1.0658   -3.2567   -5.4914 H   0  0  0  0  0  0
   -0.5169   -2.7366   -3.0805 H   0  0  0  0  0  0
  1  2  1  0  0  0
  2 10  2  0  0  0
  2  3  1  0  0  0
  3  4  2  0  0  0
  3 11  1  0  0  0
  4  5  1  0  0  0
  4 12  1  0  0  0
  5  9  1  0  0  0
  5  6  2  0  0  0
  6  7  1  0  0  0
  7  8  2  0  0  0
  8  9  1  0  0  0
  9 10  1  0  0  0
M  END
> <s_m_entry_id>
1077

> <s_m_entry_name>
Spot_Xplore.std.192

> <s_m_Source_Path>
/Volumes/cluster/ddu/2448959/Work/2023/01_Fragment_screening_lib/1_Library_Construction/Work/SpotX/Ph4_Hypo_JC2

> <s_m_Source_File>
SpotX.maegz

> <i_m_Source_File_Index>
211

> <s_m_job_name>
ligprep_SpotXplore

> <i_lp_mmshare_version>
52144

> <s_epik_input>
W2NIXTFbY0hdYyhDbClubihjMTIpbm5uMg==

> <s_epik_cmdline>
J2VwaWtfcHl0aG9uJywgJy1waHQnLCAnMS4wJywgJy1waCcsICc3LjAnLCAnLXRuJywgJzgnLCAnLW1hJywgJzIwMCcsICctaW1hZScsICc8aW5maWxlLm1hZT4nLCAnLW9tYWUnLCAnPG91dGZpbGUubWFlPic=

> <r_lp_tautomer_probability>
1

> <r_epik_Ionization_Penalty>
  0.0000

> <r_epik_Ionization_Penalty_Charging>
  0.0000

> <r_epik_Ionization_Penalty_Neutral>
  0.0000

> <r_epik_State_Penalty>
  0.0000

> <r_epik_Charging_Adjusted_Penalty>
0

> <i_epik_Tot_Q>
0

> <i_epik_Tot_abs_Q>
0

> <i_f3d_flags>
0

> <s_lp_Force_Field>
OPLS_2005

> <r_lp_Energy>
4.689238

> <b_lp_Chiralities_Consistent>
1

> <s_lp_Variant>
mol_ID_192-1

> <s_m_subgroup_title>
ligprep_SpotXplore-out1

> <s_m_subgroupid>
ligprep_SpotXplore-out1

> <b_m_subgroup_collapsed>
0

$$$$
mol_ID_193
                    3D
 Schrodinger Suite 2020-4.
 23 24  0  0  1  0            999 V2000
   -0.4524    0.5133   -1.4080 O   0  0  0  0  0  0
    0.0671   -0.2397   -0.5832 C   0  0  0  0  0  0
   -0.5957   -1.1895    0.1025 N   0  0  0  0  0  0
   -1.9797   -1.5117    0.0649 C   0  0  0  0  0  0
   -2.3498   -2.8163    0.4543 C   0  0  0  0  0  0
   -3.7038   -3.2036    0.4606 C   0  0  0  0  0  0
   -4.7013   -2.2837    0.0869 C   0  0  0  0  0  0
   -4.3435   -0.9744   -0.2859 C   0  0  0  0  0  0
   -2.9897   -0.5853   -0.2930 C   0  0  0  0  0  0
    1.5276   -0.1966   -0.2684 C   0  0  0  0  0  0
    2.4813    0.1506   -1.3938 C   0  0  0  0  0  0
    2.2148    1.1537   -0.2998 C   0  0  0  0  0  0
   -0.0264   -1.7966    0.6741 H   0  0  0  0  0  0
   -1.5931   -3.5305    0.7454 H   0  0  0  0  0  0
   -3.9772   -4.2066    0.7540 H   0  0  0  0  0  0
   -5.7399   -2.5797    0.0927 H   0  0  0  0  0  0
   -5.1092   -0.2641   -0.5616 H   0  0  0  0  0  0
   -2.7521    0.4322   -0.5621 H   0  0  0  0  0  0
    1.8872   -0.9086    0.4733 H   0  0  0  0  0  0
    3.4440   -0.3561   -1.3986 H   0  0  0  0  0  0
    2.0696    0.3640   -2.3789 H   0  0  0  0  0  0
    1.6270    2.0325   -0.5601 H   0  0  0  0  0  0
    2.9966    1.3264    0.4368 H   0  0  0  0  0  0
  1  2  2  0  0  0
  2  3  1  0  0  0
  2 10  1  0  0  0
  3  4  1  0  0  0
  3 13  1  0  0  0
  4  9  1  0  0  0
  4  5  2  0  0  0
  5  6  1  0  0  0
  5 14  1  0  0  0
  6  7  2  0  0  0
  6 15  1  0  0  0
  7  8  1  0  0  0
  7 16  1  0  0  0
  8  9  2  0  0  0
  8 17  1  0  0  0
  9 18  1  0  0  0
 10 12  1  0  0  0
 10 11  1  0  0  0
 10 19  1  0  0  0
 11 12  1  0  0  0
 11 20  1  0  0  0
 11 21  1  0  0  0
 12 22  1  0  0  0
 12 23  1  0  0  0
M  END
> <s_m_entry_id>
1078

> <s_m_entry_name>
Spot_Xplore.std.193

> <s_m_Source_Path>
/Volumes/cluster/ddu/2448959/Work/2023/01_Fragment_screening_lib/1_Library_Construction/Work/SpotX/Ph4_Hypo_JC2

> <s_m_Source_File>
SpotX.maegz

> <i_m_Source_File_Index>
212

> <s_m_job_name>
ligprep_SpotXplore

> <i_lp_mmshare_version>
52144

> <s_epik_input>
W0NIMl0xW0NIMl1bQ0hdMUMoPU8pW05IXWMyW2NIXVtjSF1bY0hdW2NIXVtjSF0y

> <s_epik_cmdline>
J2VwaWtfcHl0aG9uJywgJy1waHQnLCAnMS4wJywgJy1waCcsICc3LjAnLCAnLXRuJywgJzgnLCAnLW1hJywgJzIwMCcsICctaW1hZScsICc8aW5maWxlLm1hZT4nLCAnLW9tYWUnLCAnPG91dGZpbGUubWFlPic=

> <r_lp_tautomer_probability>
1

> <r_epik_Ionization_Penalty>
  0.0000

> <r_epik_Ionization_Penalty_Charging>
  0.0000

> <r_epik_Ionization_Penalty_Neutral>
  0.0000

> <r_epik_State_Penalty>
  0.0000

> <r_epik_Charging_Adjusted_Penalty>
0

> <i_epik_Tot_Q>
0

> <i_epik_Tot_abs_Q>
0

> <i_f3d_flags>
0

> <s_lp_Force_Field>
OPLS_2005

> <r_lp_Energy>
14.536345

> <b_lp_Chiralities_Consistent>
1

> <s_lp_Variant>
mol_ID_193-1

> <s_m_subgroup_title>
ligprep_SpotXplore-out1

> <s_m_subgroupid>
ligprep_SpotXplore-out1

> <b_m_subgroup_collapsed>
0

$$$$
mol_ID_194
                    3D
 Schrodinger Suite 2020-4.
 33 34  0  0  1  0            999 V2000
   -2.5310    3.4258   -0.3975 O   0  0  0  0  0  0
   -2.5215    2.5373    0.4835 C   0  0  0  0  0  0
   -3.1465    2.5881    1.5655 O   0  5  0  0  0  0
   -1.6973    1.2688    0.2189 C   0  0  1  0  0  0
   -2.4715    0.3232   -0.7253 C   0  0  0  0  0  0
   -1.6217   -0.8987   -1.1162 C   0  0  0  0  0  0
   -0.2428   -0.4616   -1.6395 C   0  0  0  0  0  0
    0.4240    0.3681   -0.6271 N   0  0  0  0  0  0
    1.7514    0.2758   -0.3884 C   0  0  0  0  0  0
    2.5069    1.2432   -0.4988 O   0  0  0  0  0  0
    2.1872   -0.9269    0.0580 N   0  0  0  0  0  0
    1.3687   -1.9830    0.6654 C   0  0  0  0  0  0
    2.3286   -2.8252    1.5047 C   0  0  0  0  0  0
    3.6734   -2.6382    0.8193 C   0  0  0  0  0  0
    3.6068   -1.2153    0.2651 C   0  0  0  0  0  0
   -0.3086    1.6125   -0.3710 C   0  0  0  0  0  0
   -1.5455    0.7589    1.1722 H   0  0  0  0  0  0
   -3.3993   -0.0067   -0.2561 H   0  0  0  0  0  0
   -2.7579    0.8585   -1.6324 H   0  0  0  0  0  0
   -1.4968   -1.5484   -0.2492 H   0  0  0  0  0  0
   -2.1415   -1.4873   -1.8726 H   0  0  0  0  0  0
    0.3493   -1.3341   -1.9175 H   0  0  0  0  0  0
   -0.3600    0.1194   -2.5556 H   0  0  0  0  0  0
    0.5600   -1.5830    1.2793 H   0  0  0  0  0  0
    0.9292   -2.5997   -0.1184 H   0  0  0  0  0  0
    2.3762   -2.4262    2.5188 H   0  0  0  0  0  0
    2.0275   -3.8710    1.5700 H   0  0  0  0  0  0
    4.5177   -2.7916    1.4921 H   0  0  0  0  0  0
    3.7670   -3.3489   -0.0032 H   0  0  0  0  0  0
    4.1775   -1.1179   -0.6595 H   0  0  0  0  0  0
    4.0157   -0.5106    0.9914 H   0  0  0  0  0  0
   -0.3966    2.1745   -1.3027 H   0  0  0  0  0  0
    0.2325    2.2507    0.3309 H   0  0  0  0  0  0
  1  2  2  0  0  0
  2  3  1  0  0  0
  2  4  1  0  0  0
  4 16  1  0  0  0
  4  5  1  0  0  0
  4 17  1  0  0  0
  5  6  1  0  0  0
  5 18  1  0  0  0
  5 19  1  0  0  0
  6  7  1  0  0  0
  6 20  1  0  0  0
  6 21  1  0  0  0
  7  8  1  0  0  0
  7 22  1  0  0  0
  7 23  1  0  0  0
  8  9  1  0  0  0
  8 16  1  0  0  0
  9 10  2  0  0  0
  9 11  1  0  0  0
 11 15  1  0  0  0
 11 12  1  0  0  0
 12 13  1  0  0  0
 12 24  1  0  0  0
 12 25  1  0  0  0
 13 14  1  0  0  0
 13 26  1  0  0  0
 13 27  1  0  0  0
 14 15  1  0  0  0
 14 28  1  0  0  0
 14 29  1  0  0  0
 15 30  1  0  0  0
 15 31  1  0  0  0
 16 32  1  0  0  0
 16 33  1  0  0  0
M  CHG  1   3  -1
M  END
> <s_m_entry_id>
1079

> <s_m_entry_name>
Spot_Xplore.std.194

> <s_m_Source_Path>
/Volumes/cluster/ddu/2448959/Work/2023/01_Fragment_screening_lib/1_Library_Construction/Work/SpotX/Ph4_Hypo_JC2

> <s_m_Source_File>
SpotX.maegz

> <i_m_Source_File_Index>
213

> <s_m_job_name>
ligprep_SpotXplore

> <i_lp_mmshare_version>
52144

> <s_epik_input>
Tz1DKFtPSF0pW0NASF0xW0NIMl1bQ0gyXVtDSDJdTihbQ0gyXTEpQyg9TylOMltDSDJdW0NIMl1bQ0gyXVtDSDJdMg==

> <s_epik_cmdline>
J2VwaWtfcHl0aG9uJywgJy1waHQnLCAnMS4wJywgJy1waCcsICc3LjAnLCAnLXRuJywgJzgnLCAnLW1hJywgJzIwMCcsICctaW1hZScsICc8aW5maWxlLm1hZT4nLCAnLW9tYWUnLCAnPG91dGZpbGUubWFlPic=

> <r_lp_tautomer_probability>
1

> <r_epik_Ionization_Penalty>
  0.0014

> <r_epik_Ionization_Penalty_Charging>
  0.0013

> <r_epik_Ionization_Penalty_Neutral>
  0.0001

> <r_epik_State_Penalty>
  0.0000

> <r_epik_Charging_Adjusted_Penalty>
0.00133494191482027

> <i_epik_Tot_Q>
-1

> <i_epik_Tot_abs_Q>
1

> <i_f3d_flags>
0

> <s_lp_Force_Field>
OPLS_2005

> <r_lp_Energy>
67.763538

> <b_lp_Chiralities_Consistent>
1

> <s_lp_Variant>
mol_ID_194-1

> <s_m_subgroup_title>
ligprep_SpotXplore-out1

> <s_m_subgroupid>
ligprep_SpotXplore-out1

> <b_m_subgroup_collapsed>
0

$$$$
mol_ID_195
                    3D
 Schrodinger Suite 2020-4.
 15 15  0  0  1  0            999 V2000
   -0.0011   -0.0604   -0.0000 C   0  0  0  0  0  0
    1.4418    0.0861    0.0000 N   0  0  0  0  0  0
    2.2159   -1.0204    0.0000 N   0  0  0  0  0  0
    3.4687   -0.5736    0.0000 C   0  0  0  0  0  0
    4.6240   -1.5414    0.0000 C   0  0  0  0  0  0
    5.3728   -1.3363   -1.0833 F   0  0  0  0  0  0
    5.3728   -1.3363    1.0833 F   0  0  0  0  0  0
    4.2096   -2.8099    0.0000 F   0  0  0  0  0  0
    3.5328    0.8505    0.0000 C   0  0  0  0  0  0
    2.2219    1.2237    0.0000 C   0  0  0  0  0  0
    1.6854    2.4588    0.0000 O   0  5  0  0  0  0
   -0.4885    0.9144   -0.0000 H   0  0  0  0  0  0
   -0.3141   -0.6099    0.8881 H   0  0  0  0  0  0
   -0.3141   -0.6099   -0.8881 H   0  0  0  0  0  0
    4.4022    1.4907    0.0000 H   0  0  0  0  0  0
  1  2  1  0  0  0
  1 12  1  0  0  0
  1 13  1  0  0  0
  1 14  1  0  0  0
  2 10  1  0  0  0
  2  3  1  0  0  0
  3  4  2  0  0  0
  4  5  1  0  0  0
  4  9  1  0  0  0
  5  6  1  0  0  0
  5  7  1  0  0  0
  5  8  1  0  0  0
  9 10  2  0  0  0
  9 15  1  0  0  0
 10 11  1  0  0  0
M  CHG  1  11  -1
M  END
> <s_m_entry_id>
1080

> <s_m_entry_name>
Spot_Xplore.std.195

> <s_m_Source_Path>
/Volumes/cluster/ddu/2448959/Work/2023/01_Fragment_screening_lib/1_Library_Construction/Work/SpotX/Ph4_Hypo_JC2

> <s_m_Source_File>
SpotX.maegz

> <i_m_Source_File_Index>
214

> <s_m_job_name>
ligprep_SpotXplore

> <i_lp_mmshare_version>
52144

> <s_epik_input>
W0NIM11uMW5jKEMoRikoRilGKVtjSF1jMVtPSF0=

> <s_epik_cmdline>
J2VwaWtfcHl0aG9uJywgJy1waHQnLCAnMS4wJywgJy1waCcsICc3LjAnLCAnLXRuJywgJzgnLCAnLW1hJywgJzIwMCcsICctaW1hZScsICc8aW5maWxlLm1hZT4nLCAnLW9tYWUnLCAnPG91dGZpbGUubWFlPic=

> <r_lp_tautomer_probability>
1

> <r_epik_Ionization_Penalty>
  0.3432

> <r_epik_Ionization_Penalty_Charging>
  0.3432

> <r_epik_Ionization_Penalty_Neutral>
  0.0001

> <r_epik_State_Penalty>
  0.4276

> <r_epik_Charging_Adjusted_Penalty>
0.770824701160114

> <i_epik_Tot_Q>
-1

> <i_epik_Tot_abs_Q>
1

> <i_f3d_flags>
0

> <s_lp_Force_Field>
OPLS_2005

> <r_lp_Energy>
3.654651

> <b_lp_Chiralities_Consistent>
1

> <s_lp_Variant>
mol_ID_195-1

> <s_m_subgroup_title>
ligprep_SpotXplore-out1

> <s_m_subgroupid>
ligprep_SpotXplore-out1

> <b_m_subgroup_collapsed>
0

$$$$
mol_ID_195
                    3D
 Schrodinger Suite 2020-4.
 16 16  0  0  1  0            999 V2000
   -0.0149   -0.0343    0.0000 C   0  0  0  0  0  0
    1.4317    0.0551   -0.0000 N   0  0  0  0  0  0
    2.1665   -1.0775   -0.0000 N   0  0  0  0  0  0
    3.4343   -0.6743   -0.0000 C   0  0  0  0  0  0
    4.5553   -1.6818   -0.0000 C   0  0  0  0  0  0
    5.3095   -1.5017   -1.0836 F   0  0  0  0  0  0
    5.3095   -1.5017    1.0836 F   0  0  0  0  0  0
    4.0967   -2.9346   -0.0000 F   0  0  0  0  0  0
    3.5485    0.7471   -0.0000 C   0  0  0  0  0  0
    2.2508    1.1630   -0.0000 C   0  0  0  0  0  0
    1.7405    2.4248   -0.0000 O   0  0  0  0  0  0
   -0.4608    0.9603    0.0000 H   0  0  0  0  0  0
   -0.3497   -0.5703    0.8884 H   0  0  0  0  0  0
   -0.3497   -0.5703   -0.8884 H   0  0  0  0  0  0
    4.4406    1.3556   -0.0000 H   0  0  0  0  0  0
    2.4660    3.0301   -0.0000 H   0  0  0  0  0  0
  1  2  1  0  0  0
  1 12  1  0  0  0
  1 13  1  0  0  0
  1 14  1  0  0  0
  2 10  1  0  0  0
  2  3  1  0  0  0
  3  4  2  0  0  0
  4  5  1  0  0  0
  4  9  1  0  0  0
  5  6  1  0  0  0
  5  7  1  0  0  0
  5  8  1  0  0  0
  9 10  2  0  0  0
  9 15  1  0  0  0
 10 11  1  0  0  0
 11 16  1  0  0  0
M  END
> <s_m_entry_id>
1081

> <s_m_entry_name>
Spot_Xplore.std.195

> <s_m_Source_Path>
/Volumes/cluster/ddu/2448959/Work/2023/01_Fragment_screening_lib/1_Library_Construction/Work/SpotX/Ph4_Hypo_JC2

> <s_m_Source_File>
SpotX.maegz

> <i_m_Source_File_Index>
215

> <s_m_job_name>
ligprep_SpotXplore

> <i_lp_mmshare_version>
52144

> <s_epik_input>
W0NIM11uMW5jKEMoRikoRilGKVtjSF1jMVtPSF0=

> <s_epik_cmdline>
J2VwaWtfcHl0aG9uJywgJy1waHQnLCAnMS4wJywgJy1waCcsICc3LjAnLCAnLXRuJywgJzgnLCAnLW1hJywgJzIwMCcsICctaW1hZScsICc8aW5maWxlLm1hZT4nLCAnLW9tYWUnLCAnPG91dGZpbGUubWFlPic=

> <r_lp_tautomer_probability>
0.670480009435075

> <r_epik_Ionization_Penalty>
  0.4869

> <r_epik_Ionization_Penalty_Charging>
  0.0000

> <r_epik_Ionization_Penalty_Neutral>
  0.4869

> <r_epik_State_Penalty>
  0.5810

> <r_epik_Charging_Adjusted_Penalty>
0.580952904991516

> <i_epik_Tot_Q>
0

> <i_epik_Tot_abs_Q>
0

> <i_f3d_flags>
0

> <s_lp_Force_Field>
OPLS_2005

> <r_lp_Energy>
2.837536

> <b_lp_Chiralities_Consistent>
1

> <s_lp_Variant>
mol_ID_195-2

> <s_m_subgroup_title>
ligprep_SpotXplore-out1

> <s_m_subgroupid>
ligprep_SpotXplore-out1

> <b_m_subgroup_collapsed>
0

$$$$
mol_ID_195
                    3D
 Schrodinger Suite 2020-4.
 16 16  0  0  1  0            999 V2000
   -0.0257    0.0047   -0.0000 C   0  0  0  0  0  0
    1.4309    0.0189   -0.0000 N   0  0  0  0  0  0
    2.1019   -1.1547    0.0000 N   0  0  0  0  0  0
    3.3646   -0.9054    0.0000 C   0  0  0  0  0  0
    4.4183   -1.9776    0.0000 C   0  0  0  0  0  0
    5.6356   -1.4347    0.0000 F   0  0  0  0  0  0
    4.2931   -2.7426    1.0841 F   0  0  0  0  0  0
    4.2931   -2.7426   -1.0841 F   0  0  0  0  0  0
    3.6537    0.5640    0.0000 C   0  0  0  0  0  0
    2.2366    1.0841   -0.0000 C   0  0  0  0  0  0
    1.9239    2.2737   -0.0000 O   0  0  0  0  0  0
   -0.4437    1.0123   -0.0000 H   0  0  0  0  0  0
   -0.3989   -0.5140    0.8836 H   0  0  0  0  0  0
   -0.3989   -0.5140   -0.8836 H   0  0  0  0  0  0
    4.1948    0.8742    0.8944 H   0  0  0  0  0  0
    4.1948    0.8742   -0.8944 H   0  0  0  0  0  0
  1 12  1  0  0  0
  1 13  1  0  0  0
  1 14  1  0  0  0
  1  2  1  0  0  0
  2  3  1  0  0  0
  2 10  1  0  0  0
  3  4  2  0  0  0
  4  9  1  0  0  0
  4  5  1  0  0  0
  5  6  1  0  0  0
  5  7  1  0  0  0
  5  8  1  0  0  0
  9 15  1  0  0  0
  9 16  1  0  0  0
  9 10  1  0  0  0
 10 11  2  0  0  0
M  END
> <s_m_entry_id>
1082

> <s_m_entry_name>
Spot_Xplore.std.195

> <s_m_Source_Path>
/Volumes/cluster/ddu/2448959/Work/2023/01_Fragment_screening_lib/1_Library_Construction/Work/SpotX/Ph4_Hypo_JC2

> <s_m_Source_File>
SpotX.maegz

> <i_m_Source_File_Index>
216

> <s_m_job_name>
ligprep_SpotXplore

> <i_lp_mmshare_version>
52144

> <s_epik_input>
W0NIM11uMW5jKEMoRikoRilGKVtjSF1jMVtPSF0=

> <s_epik_cmdline>
J2VwaWtfcHl0aG9uJywgJy1waHQnLCAnMS4wJywgJy1waCcsICc3LjAnLCAnLXRuJywgJzgnLCAnLW1hJywgJzIwMCcsICctaW1hZScsICc8aW5maWxlLm1hZT4nLCAnLW9tYWUnLCAnPG91dGZpbGUubWFlPic=

> <r_lp_tautomer_probability>
0.264447458426701

> <r_epik_Ionization_Penalty>
  0.0000

> <r_epik_Ionization_Penalty_Charging>
  0.0000

> <r_epik_Ionization_Penalty_Neutral>
  0.0000

> <r_epik_State_Penalty>
  1.1691

> <r_epik_Charging_Adjusted_Penalty>
1.16914882166452

> <i_epik_Tot_Q>
0

> <i_epik_Tot_abs_Q>
0

> <i_f3d_flags>
0

> <s_lp_Force_Field>
OPLS_2005

> <r_lp_Energy>
10.928114

> <b_lp_Chiralities_Consistent>
1

> <s_lp_Variant>
mol_ID_195-3

> <s_epik_Chemistry_Notes>
This compound has an imine and may undergo hydrolysis.

> <s_m_subgroup_title>
ligprep_SpotXplore-out1

> <s_m_subgroupid>
ligprep_SpotXplore-out1

> <b_m_subgroup_collapsed>
0

$$$$
mol_ID_196
                    3D
 Schrodinger Suite 2020-4.
 21 22  0  0  1  0            999 V2000
   -0.0525   -0.0207   -0.0000 C   0  0  0  0  0  0
    1.4376   -0.0432    0.0000 C   0  0  0  0  0  0
    2.1938    1.0559    0.0000 N   0  0  0  0  0  0
    3.5723    0.7948    0.0000 C   0  0  0  0  0  0
    4.5379    1.9071    0.0000 C   0  0  0  0  0  0
    4.1022    3.2542    0.0000 C   0  0  0  0  0  0
    5.0327    4.3114    0.0000 C   0  0  0  0  0  0
    6.4123    4.0369    0.0000 C   0  0  0  0  0  0
    6.8593    2.7030    0.0000 C   0  0  0  0  0  0
    5.9282    1.6460    0.0000 C   0  0  0  0  0  0
    3.8289   -0.5582    0.0000 C   0  0  0  0  0  0
    2.3782   -1.5234    0.0000 S   0  0  0  0  0  0
   -0.4217    1.0054   -0.0000 H   0  0  0  0  0  0
   -0.4325   -0.5283    0.8867 H   0  0  0  0  0  0
   -0.4325   -0.5283   -0.8867 H   0  0  0  0  0  0
    3.0494    3.4950    0.0000 H   0  0  0  0  0  0
    4.6861    5.3342    0.0000 H   0  0  0  0  0  0
    7.1257    4.8479    0.0000 H   0  0  0  0  0  0
    7.9180    2.4898    0.0000 H   0  0  0  0  0  0
    6.2986    0.6321    0.0000 H   0  0  0  0  0  0
    4.7880   -1.0536    0.0000 H   0  0  0  0  0  0
  1  2  1  0  0  0
  1 13  1  0  0  0
  1 14  1  0  0  0
  1 15  1  0  0  0
  2 12  1  0  0  0
  2  3  2  0  0  0
  3  4  1  0  0  0
  4  5  1  0  0  0
  4 11  2  0  0  0
  5 10  1  0  0  0
  5  6  2  0  0  0
  6  7  1  0  0  0
  6 16  1  0  0  0
  7  8  2  0  0  0
  7 17  1  0  0  0
  8  9  1  0  0  0
  8 18  1  0  0  0
  9 10  2  0  0  0
  9 19  1  0  0  0
 10 20  1  0  0  0
 11 12  1  0  0  0
 11 21  1  0  0  0
M  END
> <s_m_entry_id>
1083

> <s_m_entry_name>
Spot_Xplore.std.196

> <s_m_Source_Path>
/Volumes/cluster/ddu/2448959/Work/2023/01_Fragment_screening_lib/1_Library_Construction/Work/SpotX/Ph4_Hypo_JC2

> <s_m_Source_File>
SpotX.maegz

> <i_m_Source_File_Index>
217

> <s_m_job_name>
ligprep_SpotXplore

> <i_lp_mmshare_version>
52144

> <s_epik_input>
W0NIM11jMW5jKFtjSF1zMSktYzJbY0hdW2NIXVtjSF1bY0hdW2NIXTI=

> <s_epik_cmdline>
J2VwaWtfcHl0aG9uJywgJy1waHQnLCAnMS4wJywgJy1waCcsICc3LjAnLCAnLXRuJywgJzgnLCAnLW1hJywgJzIwMCcsICctaW1hZScsICc8aW5maWxlLm1hZT4nLCAnLW9tYWUnLCAnPG91dGZpbGUubWFlPic=

> <r_lp_tautomer_probability>
1

> <r_epik_Ionization_Penalty>
  0.0000

> <r_epik_Ionization_Penalty_Charging>
  0.0000

> <r_epik_Ionization_Penalty_Neutral>
  0.0000

> <r_epik_State_Penalty>
  0.0000

> <r_epik_Charging_Adjusted_Penalty>
0

> <i_epik_Tot_Q>
0

> <i_epik_Tot_abs_Q>
0

> <i_f3d_flags>
0

> <s_lp_Force_Field>
OPLS_2005

> <r_lp_Energy>
6.336152

> <b_lp_Chiralities_Consistent>
1

> <s_lp_Variant>
mol_ID_196-1

> <s_m_subgroup_title>
ligprep_SpotXplore-out1

> <s_m_subgroupid>
ligprep_SpotXplore-out1

> <b_m_subgroup_collapsed>
0

$$$$
mol_ID_197
                    3D
 Schrodinger Suite 2020-4.
 30 32  0  0  1  0            999 V2000
   -4.4990   -0.1138   -0.0178 C   0  0  0  0  0  0
   -4.3233    1.2881   -0.0071 C   0  0  0  0  0  0
   -3.0258    1.8381    0.0038 C   0  0  0  0  0  0
   -1.9312    0.9588    0.0028 C   0  0  0  0  0  0
   -0.5811    1.2538    0.0115 O   0  0  0  0  0  0
    0.0091    0.0182    0.0051 C   0  0  0  0  0  0
    1.5045   -0.0440    0.0138 C   0  0  1  0  0  0
    2.0488   -0.7229    1.2847 C   0  0  0  0  0  0
    3.5839   -0.7769    1.2504 C   0  0  0  0  0  0
    4.0820   -1.4463   -0.0413 C   0  0  0  0  0  0
    3.5428   -0.7517   -1.2308 N   0  3  0  0  0  0
    2.0637   -0.7135   -1.2580 C   0  0  0  0  0  0
   -0.8238   -1.0339   -0.0087 N   0  0  0  0  0  0
   -2.0747   -0.4465   -0.0088 C   0  0  0  0  0  0
   -3.3830   -0.9801   -0.0186 C   0  0  0  0  0  0
   -5.4970   -0.5273   -0.0253 H   0  0  0  0  0  0
   -5.1851    1.9395   -0.0069 H   0  0  0  0  0  0
   -2.8768    2.9076    0.0128 H   0  0  0  0  0  0
    1.8629    0.9868    0.0203 H   0  0  0  0  0  0
    1.7150   -0.1859    2.1733 H   0  0  0  0  0  0
    1.6520   -1.7361    1.3654 H   0  0  0  0  0  0
    3.9876    0.2343    1.3181 H   0  0  0  0  0  0
    3.9577   -1.3181    2.1201 H   0  0  0  0  0  0
    5.1713   -1.4273   -0.0815 H   0  0  0  0  0  0
    3.7800   -2.4943   -0.0681 H   0  0  0  0  0  0
    3.8886    0.1973   -1.2316 H   0  0  0  0  0  0
    1.6847   -1.7321   -1.3541 H   0  0  0  0  0  0
    1.7428   -0.1691   -2.1466 H   0  0  0  0  0  0
   -3.5296   -2.0501   -0.0267 H   0  0  0  0  0  0
    3.8738   -1.2197   -2.0626 H   0  0  0  0  0  0
  1 15  1  0  0  0
  1  2  2  0  0  0
  1 16  1  0  0  0
  2  3  1  0  0  0
  2 17  1  0  0  0
  3  4  2  0  0  0
  3 18  1  0  0  0
  4 14  1  0  0  0
  4  5  1  0  0  0
  5  6  1  0  0  0
  6  7  1  0  0  0
  6 13  2  0  0  0
  7 12  1  0  0  0
  7  8  1  0  0  0
  7 19  1  0  0  0
  8  9  1  0  0  0
  8 20  1  0  0  0
  8 21  1  0  0  0
  9 10  1  0  0  0
  9 22  1  0  0  0
  9 23  1  0  0  0
 10 11  1  0  0  0
 10 24  1  0  0  0
 10 25  1  0  0  0
 11 12  1  0  0  0
 11 26  1  0  0  0
 11 30  1  0  0  0
 12 27  1  0  0  0
 12 28  1  0  0  0
 13 14  1  0  0  0
 14 15  2  0  0  0
 15 29  1  0  0  0
M  CHG  1  11   1
M  END
> <s_m_entry_id>
1084

> <s_m_entry_name>
Spot_Xplore.std.197

> <s_m_Source_Path>
/Volumes/cluster/ddu/2448959/Work/2023/01_Fragment_screening_lib/1_Library_Construction/Work/SpotX/Ph4_Hypo_JC2

> <s_m_Source_File>
SpotX.maegz

> <i_m_Source_File_Index>
218

> <s_m_job_name>
ligprep_SpotXplore

> <i_lp_mmshare_version>
52144

> <s_epik_input>
W2NIXTFbY0hdW2NIXVtjSF1jKGMxMiluYyhvMilbQ0BIXTNbQ0gyXVtDSDJdW0NIMl1bTkhdW0NIMl0z

> <s_epik_cmdline>
J2VwaWtfcHl0aG9uJywgJy1waHQnLCAnMS4wJywgJy1waCcsICc3LjAnLCAnLXRuJywgJzgnLCAnLW1hJywgJzIwMCcsICctaW1hZScsICc8aW5maWxlLm1hZT4nLCAnLW9tYWUnLCAnPG91dGZpbGUubWFlPic=

> <r_lp_tautomer_probability>
1

> <r_epik_Ionization_Penalty>
  0.0001

> <r_epik_Ionization_Penalty_Charging>
  0.0001

> <r_epik_Ionization_Penalty_Neutral>
  0.0000

> <r_epik_State_Penalty>
  0.0000

> <r_epik_Charging_Adjusted_Penalty>
0.000140678057269258

> <i_epik_Tot_Q>
1

> <i_epik_Tot_abs_Q>
1

> <i_f3d_flags>
0

> <s_lp_Force_Field>
OPLS_2005

> <r_lp_Energy>
16.18016

> <b_lp_Chiralities_Consistent>
1

> <s_lp_Variant>
mol_ID_197-1

> <s_m_subgroup_title>
ligprep_SpotXplore-out1

> <s_m_subgroupid>
ligprep_SpotXplore-out1

> <b_m_subgroup_collapsed>
0

$$$$
mol_ID_198
                    3D
 Schrodinger Suite 2020-4.
 28 29  0  0  1  0            999 V2000
   -1.2082    0.0161    0.2463 N   0  0  0  0  0  0
   -0.0524    0.0121    0.1935 C   0  0  0  0  0  0
    1.3994    0.0072    0.1270 C   0  0  0  0  0  0
    2.1085    1.2257    0.0894 C   0  0  0  0  0  0
    3.5154    1.2217    0.0213 C   0  0  0  0  0  0
    4.2188   -0.0009   -0.0116 C   0  0  0  0  0  0
    5.7139   -0.0045   -0.0938 C   0  0  0  0  0  0
    6.3642    0.0086    0.9511 O   0  0  0  0  0  0
    6.2757   -0.0179   -1.3267 N   0  0  0  0  0  0
    5.5619    0.0354   -2.6076 C   0  0  0  0  0  0
    5.9051    1.3692   -3.2947 C   0  0  0  0  0  0
    7.3169    1.4706   -3.4672 O   0  0  0  0  0  0
    8.0395    1.3883   -2.2406 C   0  0  0  0  0  0
    7.7227    0.0541   -1.5415 C   0  0  0  0  0  0
    3.5089   -1.2194    0.0307 C   0  0  0  0  0  0
    2.1019   -1.2152    0.0989 C   0  0  0  0  0  0
    1.5790    2.1676    0.1110 H   0  0  0  0  0  0
    4.0514    2.1595   -0.0100 H   0  0  0  0  0  0
    5.8826   -0.7998   -3.2317 H   0  0  0  0  0  0
    4.4809   -0.0621   -2.5165 H   0  0  0  0  0  0
    5.4255    1.4251   -4.2720 H   0  0  0  0  0  0
    5.5386    2.2139   -2.7091 H   0  0  0  0  0  0
    9.1062    1.4608   -2.4525 H   0  0  0  0  0  0
    7.7819    2.2331   -1.5997 H   0  0  0  0  0  0
    8.2940   -0.0233   -0.6156 H   0  0  0  0  0  0
    8.0397   -0.7840   -2.1638 H   0  0  0  0  0  0
    4.0398   -2.1602    0.0071 H   0  0  0  0  0  0
    1.5675   -2.1541    0.1278 H   0  0  0  0  0  0
  1  2  3  0  0  0
  2  3  1  0  0  0
  3 16  1  0  0  0
  3  4  2  0  0  0
  4  5  1  0  0  0
  4 17  1  0  0  0
  5  6  2  0  0  0
  5 18  1  0  0  0
  6  7  1  0  0  0
  6 15  1  0  0  0
  7  8  2  0  0  0
  7  9  1  0  0  0
  9 14  1  0  0  0
  9 10  1  0  0  0
 10 11  1  0  0  0
 10 19  1  0  0  0
 10 20  1  0  0  0
 11 12  1  0  0  0
 11 21  1  0  0  0
 11 22  1  0  0  0
 12 13  1  0  0  0
 13 14  1  0  0  0
 13 23  1  0  0  0
 13 24  1  0  0  0
 14 25  1  0  0  0
 14 26  1  0  0  0
 15 16  2  0  0  0
 15 27  1  0  0  0
 16 28  1  0  0  0
M  END
> <s_m_entry_id>
1085

> <s_m_entry_name>
Spot_Xplore.std.198

> <s_m_Source_Path>
/Volumes/cluster/ddu/2448959/Work/2023/01_Fragment_screening_lib/1_Library_Construction/Work/SpotX/Ph4_Hypo_JC2

> <s_m_Source_File>
SpotX.maegz

> <i_m_Source_File_Index>
219

> <s_m_job_name>
ligprep_SpotXplore

> <i_lp_mmshare_version>
52144

> <s_epik_input>
TiNDYzFbY0hdW2NIXWMoW2NIXVtjSF0xKUMoPU8pTjJbQ0gyXVtDSDJdT1tDSDJdW0NIMl0y

> <s_epik_cmdline>
J2VwaWtfcHl0aG9uJywgJy1waHQnLCAnMS4wJywgJy1waCcsICc3LjAnLCAnLXRuJywgJzgnLCAnLW1hJywgJzIwMCcsICctaW1hZScsICc8aW5maWxlLm1hZT4nLCAnLW9tYWUnLCAnPG91dGZpbGUubWFlPic=

> <r_lp_tautomer_probability>
1

> <r_epik_Ionization_Penalty>
  0.0000

> <r_epik_Ionization_Penalty_Charging>
  0.0000

> <r_epik_Ionization_Penalty_Neutral>
  0.0000

> <r_epik_State_Penalty>
  0.0000

> <r_epik_Charging_Adjusted_Penalty>
0

> <i_epik_Tot_Q>
0

> <i_epik_Tot_abs_Q>
0

> <i_f3d_flags>
0

> <s_lp_Force_Field>
OPLS_2005

> <r_lp_Energy>
32.27483

> <b_lp_Chiralities_Consistent>
1

> <s_lp_Variant>
mol_ID_198-1

> <s_m_subgroup_title>
ligprep_SpotXplore-out1

> <s_m_subgroupid>
ligprep_SpotXplore-out1

> <b_m_subgroup_collapsed>
0

$$$$
mol_ID_199
                    3D
 Schrodinger Suite 2020-4.
 28 29  0  0  1  0            999 V2000
    0.0205   -0.1338    0.0030 O   0  0  0  0  0  0
    1.3860   -0.0723    0.0011 C   0  0  0  0  0  0
    2.0147    1.1894    0.0003 C   0  0  0  0  0  0
    3.4193    1.2821   -0.0018 C   0  0  0  0  0  0
    4.2001    0.1115   -0.0031 C   0  0  0  0  0  0
    3.5765   -1.1508   -0.0021 C   0  0  0  0  0  0
    2.1658   -1.2538    0.0002 C   0  0  0  0  0  0
    1.5373   -2.5093   -0.0012 N   0  0  0  0  0  0
    1.7312   -3.2511   -1.2442 C   0  0  0  0  0  0
    0.8402   -4.5048   -1.2751 C   0  0  0  0  0  0
    1.0724   -5.3740   -0.0285 C   0  0  0  0  0  0
    0.8825   -4.5354    1.2460 C   0  0  0  0  0  0
    1.7734   -3.2816    1.2158 C   0  0  0  0  0  0
   -0.3893    0.7173    0.0057 H   0  0  0  0  0  0
    1.4203    2.0914    0.0010 H   0  0  0  0  0  0
    3.8972    2.2507   -0.0029 H   0  0  0  0  0  0
    5.2779    0.1809   -0.0052 H   0  0  0  0  0  0
    4.1882   -2.0410   -0.0043 H   0  0  0  0  0  0
    1.4993   -2.6105   -2.0960 H   0  0  0  0  0  0
    2.7788   -3.5408   -1.3369 H   0  0  0  0  0  0
   -0.2077   -4.2054   -1.3212 H   0  0  0  0  0  0
    1.0382   -5.0824   -2.1783 H   0  0  0  0  0  0
    0.3892   -6.2236   -0.0274 H   0  0  0  0  0  0
    2.0828   -5.7843   -0.0503 H   0  0  0  0  0  0
   -0.1630   -4.2370    1.3340 H   0  0  0  0  0  0
    1.1095   -5.1349    2.1278 H   0  0  0  0  0  0
    2.8229   -3.5747    1.2659 H   0  0  0  0  0  0
    1.5714   -2.6621    2.0904 H   0  0  0  0  0  0
  1  2  1  0  0  0
  1 14  1  0  0  0
  2  7  1  0  0  0
  2  3  2  0  0  0
  3  4  1  0  0  0
  3 15  1  0  0  0
  4  5  2  0  0  0
  4 16  1  0  0  0
  5  6  1  0  0  0
  5 17  1  0  0  0
  6  7  2  0  0  0
  6 18  1  0  0  0
  7  8  1  0  0  0
  8 13  1  0  0  0
  8  9  1  0  0  0
  9 10  1  0  0  0
  9 19  1  0  0  0
  9 20  1  0  0  0
 10 11  1  0  0  0
 10 21  1  0  0  0
 10 22  1  0  0  0
 11 12  1  0  0  0
 11 23  1  0  0  0
 11 24  1  0  0  0
 12 13  1  0  0  0
 12 25  1  0  0  0
 12 26  1  0  0  0
 13 27  1  0  0  0
 13 28  1  0  0  0
M  END
> <s_m_entry_id>
1086

> <s_m_entry_name>
Spot_Xplore.std.199

> <s_m_Source_Path>
/Volumes/cluster/ddu/2448959/Work/2023/01_Fragment_screening_lib/1_Library_Construction/Work/SpotX/Ph4_Hypo_JC2

> <s_m_Source_File>
SpotX.maegz

> <i_m_Source_File_Index>
220

> <s_m_job_name>
ligprep_SpotXplore

> <i_lp_mmshare_version>
52144

> <s_epik_input>
W09IXWMxW2NIXVtjSF1bY0hdW2NIXWMxTjJbQ0gyXVtDSDJdW0NIMl1bQ0gyXVtDSDJdMg==

> <s_epik_cmdline>
J2VwaWtfcHl0aG9uJywgJy1waHQnLCAnMS4wJywgJy1waCcsICc3LjAnLCAnLXRuJywgJzgnLCAnLW1hJywgJzIwMCcsICctaW1hZScsICc8aW5maWxlLm1hZT4nLCAnLW9tYWUnLCAnPG91dGZpbGUubWFlPic=

> <r_lp_tautomer_probability>
0.999999999997365

> <r_epik_Ionization_Penalty>
  0.0719

> <r_epik_Ionization_Penalty_Charging>
  0.0000

> <r_epik_Ionization_Penalty_Neutral>
  0.0719

> <r_epik_State_Penalty>
  0.1460

> <r_epik_Charging_Adjusted_Penalty>
0.145950015346395

> <i_epik_Tot_Q>
0

> <i_epik_Tot_abs_Q>
0

> <i_f3d_flags>
0

> <s_lp_Force_Field>
OPLS_2005

> <r_lp_Energy>
21.218799

> <b_lp_Chiralities_Consistent>
1

> <s_lp_Variant>
mol_ID_199-1

> <s_m_subgroup_title>
ligprep_SpotXplore-out1

> <s_m_subgroupid>
ligprep_SpotXplore-out1

> <b_m_subgroup_collapsed>
0

$$$$
mol_ID_199
                    3D
 Schrodinger Suite 2020-4.
 28 29  0  0  1  0            999 V2000
    0.0722    2.3251    0.0000 O   0  5  0  0  0  0
   -0.6774    1.1827    0.0000 C   0  0  0  0  0  0
   -2.0843    1.2646    0.0000 C   0  0  0  0  0  0
   -2.8611    0.0881   -0.0000 C   0  0  0  0  0  0
   -2.2368   -1.1757   -0.0000 C   0  0  0  0  0  0
   -0.8317   -1.2684   -0.0000 C   0  0  0  0  0  0
   -0.0619   -0.0863   -0.0000 C   0  0  0  0  0  0
    1.4461   -0.1623    0.0000 N   0  3  0  0  0  0
    2.0139   -0.7633    1.2315 C   0  0  0  0  0  0
    3.5442   -0.6119    1.2588 C   0  0  0  0  0  0
    4.1788   -1.2213   -0.0000 C   0  0  0  0  0  0
    3.5442   -0.6119   -1.2588 C   0  0  0  0  0  0
    2.0139   -0.7633   -1.2315 C   0  0  0  0  0  0
   -2.5716    2.2288    0.0000 H   0  0  0  0  0  0
   -3.9390    0.1562   -0.0000 H   0  0  0  0  0  0
   -2.8367   -2.0737   -0.0000 H   0  0  0  0  0  0
   -0.3565   -2.2381   -0.0000 H   0  0  0  0  0  0
    1.5784   -0.2749    2.1043 H   0  0  0  0  0  0
    1.7408   -1.8180    1.2872 H   0  0  0  0  0  0
    3.8051    0.4452    1.3253 H   0  0  0  0  0  0
    3.9508   -1.0883    2.1512 H   0  0  0  0  0  0
    5.2560   -1.0519   -0.0000 H   0  0  0  0  0  0
    4.0323   -2.3023   -0.0000 H   0  0  0  0  0  0
    3.8051    0.4452   -1.3253 H   0  0  0  0  0  0
    3.9508   -1.0883   -2.1512 H   0  0  0  0  0  0
    1.7408   -1.8179   -1.2872 H   0  0  0  0  0  0
    1.5784   -0.2749   -2.1043 H   0  0  0  0  0  0
    1.7839    0.7902    0.0000 H   0  0  0  0  0  0
  1  2  1  0  0  0
  2  7  1  0  0  0
  2  3  2  0  0  0
  3  4  1  0  0  0
  3 14  1  0  0  0
  4  5  2  0  0  0
  4 15  1  0  0  0
  5  6  1  0  0  0
  5 16  1  0  0  0
  6  7  2  0  0  0
  6 17  1  0  0  0
  7  8  1  0  0  0
  8 13  1  0  0  0
  8  9  1  0  0  0
  8 28  1  0  0  0
  9 10  1  0  0  0
  9 18  1  0  0  0
  9 19  1  0  0  0
 10 11  1  0  0  0
 10 20  1  0  0  0
 10 21  1  0  0  0
 11 12  1  0  0  0
 11 22  1  0  0  0
 11 23  1  0  0  0
 12 13  1  0  0  0
 12 24  1  0  0  0
 12 25  1  0  0  0
 13 26  1  0  0  0
 13 27  1  0  0  0
M  CHG  2   1  -1   8   1
M  END
> <s_m_entry_id>
1087

> <s_m_entry_name>
Spot_Xplore.std.199

> <s_m_Source_Path>
/Volumes/cluster/ddu/2448959/Work/2023/01_Fragment_screening_lib/1_Library_Construction/Work/SpotX/Ph4_Hypo_JC2

> <s_m_Source_File>
SpotX.maegz

> <i_m_Source_File_Index>
221

> <s_m_job_name>
ligprep_SpotXplore

> <i_lp_mmshare_version>
52144

> <s_epik_input>
W09IXWMxW2NIXVtjSF1bY0hdW2NIXWMxTjJbQ0gyXVtDSDJdW0NIMl1bQ0gyXVtDSDJdMg==

> <s_epik_cmdline>
J2VwaWtfcHl0aG9uJywgJy1waHQnLCAnMS4wJywgJy1waCcsICc3LjAnLCAnLXRuJywgJzgnLCAnLW1hJywgJzIwMCcsICctaW1hZScsICc8aW5maWxlLm1hZT4nLCAnLW9tYWUnLCAnPG91dGZpbGUubWFlPic=

> <r_epik_Ionization_Penalty>
  0.3119

> <r_epik_Ionization_Penalty_Charging>
  0.3119

> <r_epik_Ionization_Penalty_Neutral>
  0.0000

> <r_epik_State_Penalty>
  1.2051

> <r_epik_Charging_Adjusted_Penalty>
1.51694419295923

> <i_epik_Tot_Q>
0

> <i_epik_Tot_abs_Q>
2

> <i_f3d_flags>
0

> <s_lp_Force_Field>
OPLS_2005

> <r_lp_Energy>
8.566621

> <b_lp_Chiralities_Consistent>
1

> <s_lp_Variant>
mol_ID_199-2

> <s_m_subgroup_title>
ligprep_SpotXplore-out1

> <s_m_subgroupid>
ligprep_SpotXplore-out1

> <b_m_subgroup_collapsed>
0

$$$$
mol_ID_200
                    3D
 Schrodinger Suite 2020-4.
 21 22  0  0  1  0            999 V2000
   -2.3718    0.0804    0.0684 C   0  0  0  0  0  0
   -3.4959   -0.5872   -0.4589 C   0  0  0  0  0  0
   -3.4459   -1.9196   -0.6762 N   0  3  0  0  0  0
   -2.3513   -2.6667   -0.4093 C   0  0  0  0  0  0
   -1.1883   -2.0499    0.1171 C   0  0  0  0  0  0
   -1.2065   -0.6592    0.3590 C   0  0  0  0  0  0
   -0.0355   -2.7941    0.4081 N   0  0  0  0  0  0
    0.0581   -4.1458   -0.1297 C   0  0  0  0  0  0
   -1.2690   -4.9082    0.0071 C   0  0  0  0  0  0
   -2.4084   -4.1570   -0.6970 C   0  0  0  0  0  0
   -2.4020    1.1452    0.2476 H   0  0  0  0  0  0
   -4.4265   -0.0996   -0.7108 H   0  0  0  0  0  0
   -0.3370   -0.1607    0.7626 H   0  0  0  0  0  0
    0.8148   -2.3159    0.6711 H   0  0  0  0  0  0
    0.3559   -4.0893   -1.1774 H   0  0  0  0  0  0
    0.8511   -4.6778    0.3966 H   0  0  0  0  0  0
   -1.1793   -5.9202   -0.3887 H   0  0  0  0  0  0
   -1.5062   -5.0105    1.0672 H   0  0  0  0  0  0
   -3.3741   -4.5633   -0.3943 H   0  0  0  0  0  0
   -2.3278   -4.2945   -1.7759 H   0  0  0  0  0  0
   -4.2705   -2.3832   -1.0579 H   0  0  0  0  0  0
  1  6  1  0  0  0
  1  2  2  0  0  0
  1 11  1  0  0  0
  2  3  1  0  0  0
  2 12  1  0  0  0
  3  4  2  0  0  0
  3 21  1  0  0  0
  4 10  1  0  0  0
  4  5  1  0  0  0
  5  6  2  0  0  0
  5  7  1  0  0  0
  6 13  1  0  0  0
  7  8  1  0  0  0
  7 14  1  0  0  0
  8  9  1  0  0  0
  8 15  1  0  0  0
  8 16  1  0  0  0
  9 10  1  0  0  0
  9 17  1  0  0  0
  9 18  1  0  0  0
 10 19  1  0  0  0
 10 20  1  0  0  0
M  CHG  1   3   1
M  END
> <s_m_entry_id>
1088

> <s_m_entry_name>
Spot_Xplore.std.200

> <s_m_Source_Path>
/Volumes/cluster/ddu/2448959/Work/2023/01_Fragment_screening_lib/1_Library_Construction/Work/SpotX/Ph4_Hypo_JC2

> <s_m_Source_File>
SpotX.maegz

> <i_m_Source_File_Index>
222

> <s_m_job_name>
ligprep_SpotXplore

> <i_lp_mmshare_version>
52144

> <s_epik_input>
bjFbY0hdW2NIXVtjSF1jKGMxMilbTkhdW0NIMl1bQ0gyXVtDSDJdMg==

> <s_epik_cmdline>
J2VwaWtfcHl0aG9uJywgJy1waHQnLCAnMS4wJywgJy1waCcsICc3LjAnLCAnLXRuJywgJzgnLCAnLW1hJywgJzIwMCcsICctaW1hZScsICc8aW5maWxlLm1hZT4nLCAnLW9tYWUnLCAnPG91dGZpbGUubWFlPic=

> <r_lp_tautomer_probability>
0.999845792937317

> <r_epik_Ionization_Penalty>
  0.3838

> <r_epik_Ionization_Penalty_Charging>
  0.3838

> <r_epik_Ionization_Penalty_Neutral>
  0.0000

> <r_epik_State_Penalty>
  0.3820

> <r_epik_Charging_Adjusted_Penalty>
0.765832657889036

> <i_epik_Tot_Q>
1

> <i_epik_Tot_abs_Q>
1

> <i_f3d_flags>
0

> <s_lp_Force_Field>
OPLS_2005

> <r_lp_Energy>
14.76206

> <b_lp_Chiralities_Consistent>
1

> <s_lp_Variant>
mol_ID_200-1

> <s_m_subgroup_title>
ligprep_SpotXplore-out1

> <s_m_subgroupid>
ligprep_SpotXplore-out1

> <b_m_subgroup_collapsed>
0

$$$$
mol_ID_200
                    3D
 Schrodinger Suite 2020-4.
 20 21  0  0  1  0            999 V2000
    1.0180    2.1378    0.4174 C   0  0  0  0  0  0
    1.9552    1.4144    1.1812 C   0  0  0  0  0  0
    1.9777    0.0660    1.2448 N   0  0  0  0  0  0
    1.0523   -0.6180    0.5362 C   0  0  0  0  0  0
    0.0622    0.0120   -0.2604 C   0  0  0  0  0  0
    0.0543    1.4205   -0.3168 C   0  0  0  0  0  0
   -0.8863   -0.7225   -0.9877 N   0  0  0  0  0  0
   -1.0400   -2.1361   -0.6707 C   0  0  0  0  0  0
    0.3184   -2.8223   -0.4683 C   0  0  0  0  0  0
    1.1168   -2.1330    0.6472 C   0  0  0  0  0  0
    1.0386    3.2173    0.3956 H   0  0  0  0  0  0
    2.7073    1.9331    1.7569 H   0  0  0  0  0  0
   -0.6777    1.9461   -0.9126 H   0  0  0  0  0  0
   -1.6501   -0.2378   -1.4371 H   0  0  0  0  0  0
   -1.6505   -2.2326    0.2277 H   0  0  0  0  0  0
   -1.5869   -2.6194   -1.4804 H   0  0  0  0  0  0
    0.1904   -3.8817   -0.2451 H   0  0  0  0  0  0
    0.8816   -2.7676   -1.4009 H   0  0  0  0  0  0
    2.1546   -2.4680    0.6292 H   0  0  0  0  0  0
    0.7090   -2.4150    1.6186 H   0  0  0  0  0  0
  1  6  1  0  0  0
  1  2  2  0  0  0
  1 11  1  0  0  0
  2  3  1  0  0  0
  2 12  1  0  0  0
  3  4  2  0  0  0
  4 10  1  0  0  0
  4  5  1  0  0  0
  5  6  2  0  0  0
  5  7  1  0  0  0
  6 13  1  0  0  0
  7  8  1  0  0  0
  7 14  1  0  0  0
  8  9  1  0  0  0
  8 15  1  0  0  0
  8 16  1  0  0  0
  9 10  1  0  0  0
  9 17  1  0  0  0
  9 18  1  0  0  0
 10 19  1  0  0  0
 10 20  1  0  0  0
M  END
> <s_m_entry_id>
1089

> <s_m_entry_name>
Spot_Xplore.std.200

> <s_m_Source_Path>
/Volumes/cluster/ddu/2448959/Work/2023/01_Fragment_screening_lib/1_Library_Construction/Work/SpotX/Ph4_Hypo_JC2

> <s_m_Source_File>
SpotX.maegz

> <i_m_Source_File_Index>
223

> <s_m_job_name>
ligprep_SpotXplore

> <i_lp_mmshare_version>
52144

> <s_epik_input>
bjFbY0hdW2NIXVtjSF1jKGMxMilbTkhdW0NIMl1bQ0gyXVtDSDJdMg==

> <s_epik_cmdline>
J2VwaWtfcHl0aG9uJywgJy1waHQnLCAnMS4wJywgJy1waCcsICc3LjAnLCAnLXRuJywgJzgnLCAnLW1hJywgJzIwMCcsICctaW1hZScsICc8aW5maWxlLm1hZT4nLCAnLW9tYWUnLCAnPG91dGZpbGUubWFlPic=

> <r_lp_tautomer_probability>
0.999999999999999

> <r_epik_Ionization_Penalty>
  0.4393

> <r_epik_Ionization_Penalty_Charging>
  0.0000

> <r_epik_Ionization_Penalty_Neutral>
  0.4393

> <r_epik_State_Penalty>
  0.4408

> <r_epik_Charging_Adjusted_Penalty>
0.440777511197243

> <i_epik_Tot_Q>
0

> <i_epik_Tot_abs_Q>
0

> <i_f3d_flags>
0

> <s_lp_Force_Field>
OPLS_2005

> <r_lp_Energy>
8.657445

> <b_lp_Chiralities_Consistent>
1

> <s_lp_Variant>
mol_ID_200-2

> <s_m_subgroup_title>
ligprep_SpotXplore-out1

> <s_m_subgroupid>
ligprep_SpotXplore-out1

> <b_m_subgroup_collapsed>
0

$$$$
mol_ID_201
                    3D
 Schrodinger Suite 2020-4.
 17 18  0  0  1  0            999 V2000
   -2.9117    1.6660   -0.0000 O   0  0  0  0  0  0
   -2.0242    0.8154   -0.0000 C   0  0  0  0  0  0
   -2.0769   -0.5090   -0.0000 N   0  5  0  0  0  0
   -0.7358   -0.9931   -0.0000 N   0  0  0  0  0  0
    0.0089    0.0228   -0.0000 C   0  0  0  0  0  0
    1.4910    0.0022    0.0000 C   0  0  0  0  0  0
    2.2065    1.2203    0.0000 C   0  0  0  0  0  0
    3.6152    1.2149    0.0000 C   0  0  0  0  0  0
    4.3162   -0.0062    0.0000 C   0  0  0  0  0  0
    3.6084   -1.2233    0.0000 C   0  0  0  0  0  0
    2.1997   -1.2213    0.0000 C   0  0  0  0  0  0
   -0.7409    1.1526   -0.0000 O   0  0  0  0  0  0
    1.6841    2.1661    0.0000 H   0  0  0  0  0  0
    4.1579    2.1487    0.0000 H   0  0  0  0  0  0
    5.3963   -0.0092    0.0000 H   0  0  0  0  0  0
    4.1457   -2.1601    0.0000 H   0  0  0  0  0  0
    1.6732   -2.1650   -0.0000 H   0  0  0  0  0  0
  1  2  2  0  0  0
  2 12  1  0  0  0
  2  3  1  0  0  0
  3  4  1  0  0  0
  4  5  2  0  0  0
  5  6  1  0  0  0
  5 12  1  0  0  0
  6 11  1  0  0  0
  6  7  2  0  0  0
  7  8  1  0  0  0
  7 13  1  0  0  0
  8  9  2  0  0  0
  8 14  1  0  0  0
  9 10  1  0  0  0
  9 15  1  0  0  0
 10 11  2  0  0  0
 10 16  1  0  0  0
 11 17  1  0  0  0
M  CHG  1   3  -1
M  END
> <s_m_entry_id>
1090

> <s_m_entry_name>
Spot_Xplore.std.201

> <s_m_Source_Path>
/Volumes/cluster/ddu/2448959/Work/2023/01_Fragment_screening_lib/1_Library_Construction/Work/SpotX/Ph4_Hypo_JC2

> <s_m_Source_File>
SpotX.maegz

> <i_m_Source_File_Index>
224

> <s_m_job_name>
ligprep_SpotXplore

> <i_lp_mmshare_version>
52144

> <s_epik_input>
Tz1jMVtuSF1uYyhvMSktYzJbY0hdW2NIXVtjSF1bY0hdW2NIXTI=

> <s_epik_cmdline>
J2VwaWtfcHl0aG9uJywgJy1waHQnLCAnMS4wJywgJy1waCcsICc3LjAnLCAnLXRuJywgJzgnLCAnLW1hJywgJzIwMCcsICctaW1hZScsICc8aW5maWxlLm1hZT4nLCAnLW9tYWUnLCAnPG91dGZpbGUubWFlPic=

> <r_lp_tautomer_probability>
1

> <r_epik_Ionization_Penalty>
  0.0510

> <r_epik_Ionization_Penalty_Charging>
  0.0000

> <r_epik_Ionization_Penalty_Neutral>
  0.0510

> <r_epik_State_Penalty>
  0.0437

> <r_epik_Charging_Adjusted_Penalty>
0.0436504662336651

> <i_epik_Tot_Q>
-1

> <i_epik_Tot_abs_Q>
1

> <i_f3d_flags>
0

> <s_lp_Force_Field>
OPLS_2005

> <r_lp_Energy>
14.15896

> <b_lp_Chiralities_Consistent>
1

> <s_lp_Variant>
mol_ID_201-1

> <s_m_subgroup_title>
ligprep_SpotXplore-out1

> <s_m_subgroupid>
ligprep_SpotXplore-out1

> <b_m_subgroup_collapsed>
0

$$$$
mol_ID_202
                    3D
 Schrodinger Suite 2020-4.
 26 27  0  0  1  0            999 V2000
   -3.7296    0.8276   -1.5046 O   0  0  0  0  0  0
   -2.6936    0.5091   -0.9250 C   0  0  0  0  0  0
   -2.0208   -0.8449   -1.1580 C   0  0  0  0  0  0
   -0.4883   -0.7104   -1.2528 C   0  0  0  0  0  0
    0.0595    0.0928   -0.1619 N   0  0  0  0  0  0
    1.4596    0.0608   -0.1049 C   0  0  0  0  0  0
    2.2616    0.6421   -1.1160 C   0  0  0  0  0  0
    3.6656    0.5775   -1.0048 C   0  0  0  0  0  0
    4.2290   -0.0349    0.0594 N   0  3  0  0  0  0
    3.5013   -0.6030    1.0459 C   0  0  0  0  0  0
    2.0931   -0.5698    0.9881 C   0  0  0  0  0  0
   -0.4927    1.4423   -0.0633 C   0  0  0  0  0  0
   -2.0253    1.4279    0.0995 C   0  0  0  0  0  0
   -2.2830   -1.4979   -0.3253 H   0  0  0  0  0  0
   -2.4185   -1.3055   -2.0626 H   0  0  0  0  0  0
   -0.0355   -1.7028   -1.2372 H   0  0  0  0  0  0
   -0.2204   -0.2571   -2.2084 H   0  0  0  0  0  0
    1.8108    1.1310   -1.9674 H   0  0  0  0  0  0
    4.3494    0.9941   -1.7300 H   0  0  0  0  0  0
    4.0629   -1.0636    1.8454 H   0  0  0  0  0  0
    1.5070   -1.0234    1.7745 H   0  0  0  0  0  0
   -0.0425    1.9586    0.7857 H   0  0  0  0  0  0
   -0.2265    2.0116   -0.9552 H   0  0  0  0  0  0
   -2.4269    2.4375    0.0095 H   0  0  0  0  0  0
   -2.2871    1.0677    1.0946 H   0  0  0  0  0  0
    5.2471   -0.0703    0.1209 H   0  0  0  0  0  0
  1  2  2  0  0  0
  2 13  1  0  0  0
  2  3  1  0  0  0
  3  4  1  0  0  0
  3 14  1  0  0  0
  3 15  1  0  0  0
  4  5  1  0  0  0
  4 16  1  0  0  0
  4 17  1  0  0  0
  5  6  1  0  0  0
  5 12  1  0  0  0
  6 11  1  0  0  0
  6  7  2  0  0  0
  7  8  1  0  0  0
  7 18  1  0  0  0
  8  9  2  0  0  0
  8 19  1  0  0  0
  9 10  1  0  0  0
  9 26  1  0  0  0
 10 11  2  0  0  0
 10 20  1  0  0  0
 11 21  1  0  0  0
 12 13  1  0  0  0
 12 22  1  0  0  0
 12 23  1  0  0  0
 13 24  1  0  0  0
 13 25  1  0  0  0
M  CHG  1   9   1
M  END
> <s_m_entry_id>
1091

> <s_m_entry_name>
Spot_Xplore.std.202

> <s_m_Source_Path>
/Volumes/cluster/ddu/2448959/Work/2023/01_Fragment_screening_lib/1_Library_Construction/Work/SpotX/Ph4_Hypo_JC2

> <s_m_Source_File>
SpotX.maegz

> <i_m_Source_File_Index>
225

> <s_m_job_name>
ligprep_SpotXplore

> <i_lp_mmshare_version>
52144

> <s_epik_input>
Tz1DMVtDSDJdW0NIMl1OKFtDSDJdW0NIMl0xKWMyW2NIXVtjSF1uW2NIXVtjSF0y

> <s_epik_cmdline>
J2VwaWtfcHl0aG9uJywgJy1waHQnLCAnMS4wJywgJy1waCcsICc3LjAnLCAnLXRuJywgJzgnLCAnLW1hJywgJzIwMCcsICctaW1hZScsICc8aW5maWxlLm1hZT4nLCAnLW9tYWUnLCAnPG91dGZpbGUubWFlPic=

> <r_lp_tautomer_probability>
1

> <r_epik_Ionization_Penalty>
  0.0028

> <r_epik_Ionization_Penalty_Charging>
  0.0028

> <r_epik_Ionization_Penalty_Neutral>
  0.0000

> <r_epik_State_Penalty>
  0.0000

> <r_epik_Charging_Adjusted_Penalty>
0.00277730232359831

> <i_epik_Tot_Q>
1

> <i_epik_Tot_abs_Q>
1

> <i_f3d_flags>
0

> <s_lp_Force_Field>
OPLS_2005

> <r_lp_Energy>
15.553088

> <b_lp_Chiralities_Consistent>
1

> <s_lp_Variant>
mol_ID_202-1

> <s_m_subgroup_title>
ligprep_SpotXplore-out1

> <s_m_subgroupid>
ligprep_SpotXplore-out1

> <b_m_subgroup_collapsed>
0

$$$$
mol_ID_203
                    3D
 Schrodinger Suite 2020-4.
 24 25  0  0  1  0            999 V2000
   -2.2797    2.4484    1.1558 O   0  0  0  0  0  0
   -1.8344    1.4134    0.6653 C   0  0  0  0  0  0
   -2.7507    0.2081    0.4511 C   0  0  0  0  0  0
   -2.2508   -0.7236   -0.6684 C   0  0  0  0  0  0
   -0.7298   -0.9252   -0.6579 C   0  0  0  0  0  0
   -0.2774   -1.9948   -1.0671 O   0  0  0  0  0  0
    0.0473    0.0840   -0.1833 N   0  0  0  0  0  0
    1.4685    0.0249   -0.1133 C   0  0  0  0  0  0
    2.2409   -0.3504   -1.2378 C   0  0  0  0  0  0
    3.6466   -0.3801   -1.1572 C   0  0  0  0  0  0
    4.2919   -0.0277    0.0432 C   0  0  0  0  0  0
    3.5312    0.3586    1.1628 C   0  0  0  0  0  0
    2.1253    0.3899    1.0841 C   0  0  0  0  0  0
   -0.5477    1.2925    0.2933 N   0  0  0  0  0  0
   -2.8116   -0.3421    1.3907 H   0  0  0  0  0  0
   -3.7596    0.5547    0.2246 H   0  0  0  0  0  0
   -2.7456   -1.6924   -0.5898 H   0  0  0  0  0  0
   -2.5272   -0.3121   -1.6398 H   0  0  0  0  0  0
    1.7611   -0.6124   -2.1695 H   0  0  0  0  0  0
    4.2301   -0.6704   -2.0184 H   0  0  0  0  0  0
    5.3701   -0.0500    0.1041 H   0  0  0  0  0  0
    4.0263    0.6317    2.0831 H   0  0  0  0  0  0
    1.5543    0.6876    1.9517 H   0  0  0  0  0  0
    0.1398    2.0263    0.3869 H   0  0  0  0  0  0
  1  2  2  0  0  0
  2 14  1  0  0  0
  2  3  1  0  0  0
  3  4  1  0  0  0
  3 15  1  0  0  0
  3 16  1  0  0  0
  4  5  1  0  0  0
  4 17  1  0  0  0
  4 18  1  0  0  0
  5  6  2  0  0  0
  5  7  1  0  0  0
  7  8  1  0  0  0
  7 14  1  0  0  0
  8 13  1  0  0  0
  8  9  2  0  0  0
  9 10  1  0  0  0
  9 19  1  0  0  0
 10 11  2  0  0  0
 10 20  1  0  0  0
 11 12  1  0  0  0
 11 21  1  0  0  0
 12 13  2  0  0  0
 12 22  1  0  0  0
 13 23  1  0  0  0
 14 24  1  0  0  0
M  END
> <s_m_entry_id>
1092

> <s_m_entry_name>
Spot_Xplore.std.203

> <s_m_Source_Path>
/Volumes/cluster/ddu/2448959/Work/2023/01_Fragment_screening_lib/1_Library_Construction/Work/SpotX/Ph4_Hypo_JC2

> <s_m_Source_File>
SpotX.maegz

> <i_m_Source_File_Index>
226

> <s_m_job_name>
ligprep_SpotXplore

> <i_lp_mmshare_version>
52144

> <s_epik_input>
Tz1DMVtDSDJdW0NIMl1DKD1PKU4oW05IXTEpYzJbY0hdW2NIXVtjSF1bY0hdW2NIXTI=

> <s_epik_cmdline>
J2VwaWtfcHl0aG9uJywgJy1waHQnLCAnMS4wJywgJy1waCcsICc3LjAnLCAnLXRuJywgJzgnLCAnLW1hJywgJzIwMCcsICctaW1hZScsICc8aW5maWxlLm1hZT4nLCAnLW9tYWUnLCAnPG91dGZpbGUubWFlPic=

> <r_epik_Ionization_Penalty>
  0.0542

> <r_epik_Ionization_Penalty_Charging>
  0.0000

> <r_epik_Ionization_Penalty_Neutral>
  0.0542

> <r_epik_State_Penalty>
  0.0466

> <r_epik_Charging_Adjusted_Penalty>
0.0466013404774999

> <i_epik_Tot_Q>
0

> <i_epik_Tot_abs_Q>
0

> <i_f3d_flags>
0

> <s_lp_Force_Field>
OPLS_2005

> <r_lp_Energy>
24.085335

> <b_lp_Chiralities_Consistent>
1

> <s_lp_Variant>
mol_ID_203-1

> <s_m_subgroup_title>
ligprep_SpotXplore-out1

> <s_m_subgroupid>
ligprep_SpotXplore-out1

> <b_m_subgroup_collapsed>
0

$$$$
mol_ID_204
                    3D
 Schrodinger Suite 2020-4.
 22 23  0  0  1  0            999 V2000
   -0.0004   -0.0088    0.0000 C   0  0  0  0  0  0
    1.4903   -0.0079   -0.0000 C   0  0  0  0  0  0
    2.3950    1.0157   -0.0000 C   0  0  0  0  0  0
    3.6741    0.3763   -0.0000 C   0  0  0  0  0  0
    5.0072    1.0028   -0.0000 C   0  0  0  0  0  0
    6.1894    0.2234   -0.0000 C   0  0  0  0  0  0
    7.4566    0.8384   -0.0000 C   0  0  0  0  0  0
    7.5594    2.2416   -0.0000 C   0  0  0  0  0  0
    6.3928    3.0280   -0.0000 C   0  0  0  0  0  0
    5.1261    2.4120   -0.0000 C   0  0  0  0  0  0
    3.5524   -0.9475   -0.0000 N   0  0  0  0  0  0
    2.2256   -1.1680   -0.0000 N   0  0  0  0  0  0
   -0.3901    1.0093    0.0000 H   0  0  0  0  0  0
   -0.3877   -0.5177    0.8830 H   0  0  0  0  0  0
   -0.3877   -0.5177   -0.8830 H   0  0  0  0  0  0
    2.1697    2.0718   -0.0000 H   0  0  0  0  0  0
    6.1390   -0.8554   -0.0000 H   0  0  0  0  0  0
    8.3500    0.2314   -0.0000 H   0  0  0  0  0  0
    8.5308    2.7134   -0.0000 H   0  0  0  0  0  0
    6.4687    4.1055   -0.0000 H   0  0  0  0  0  0
    4.2466    3.0378   -0.0000 H   0  0  0  0  0  0
    1.8426   -2.1028    0.0000 H   0  0  0  0  0  0
  1  2  1  0  0  0
  1 13  1  0  0  0
  1 14  1  0  0  0
  1 15  1  0  0  0
  2 12  1  0  0  0
  2  3  2  0  0  0
  3  4  1  0  0  0
  3 16  1  0  0  0
  4  5  1  0  0  0
  4 11  2  0  0  0
  5 10  1  0  0  0
  5  6  2  0  0  0
  6  7  1  0  0  0
  6 17  1  0  0  0
  7  8  2  0  0  0
  7 18  1  0  0  0
  8  9  1  0  0  0
  8 19  1  0  0  0
  9 10  2  0  0  0
  9 20  1  0  0  0
 10 21  1  0  0  0
 11 12  1  0  0  0
 12 22  1  0  0  0
M  END
> <s_m_entry_id>
1093

> <s_m_entry_name>
Spot_Xplore.std.204

> <s_m_Source_Path>
/Volumes/cluster/ddu/2448959/Work/2023/01_Fragment_screening_lib/1_Library_Construction/Work/SpotX/Ph4_Hypo_JC2

> <s_m_Source_File>
SpotX.maegz

> <i_m_Source_File_Index>
227

> <s_m_job_name>
ligprep_SpotXplore

> <i_lp_mmshare_version>
52144

> <s_epik_input>
W0NIM11jMVtjSF1jKG5bbkhdMSktYzJbY0hdW2NIXVtjSF1bY0hdW2NIXTI=

> <s_epik_cmdline>
J2VwaWtfcHl0aG9uJywgJy1waHQnLCAnMS4wJywgJy1waCcsICc3LjAnLCAnLXRuJywgJzgnLCAnLW1hJywgJzIwMCcsICctaW1hZScsICc8aW5maWxlLm1hZT4nLCAnLW9tYWUnLCAnPG91dGZpbGUubWFlPic=

> <r_lp_tautomer_probability>
0.5

> <r_epik_Ionization_Penalty>
  0.0001

> <r_epik_Ionization_Penalty_Charging>
  0.0000

> <r_epik_Ionization_Penalty_Neutral>
  0.0001

> <r_epik_State_Penalty>
  0.4107

> <r_epik_Charging_Adjusted_Penalty>
0.410679838952604

> <i_epik_Tot_Q>
0

> <i_epik_Tot_abs_Q>
0

> <i_f3d_flags>
0

> <s_lp_Force_Field>
OPLS_2005

> <r_lp_Energy>
6.721393

> <b_lp_Chiralities_Consistent>
1

> <s_lp_Variant>
mol_ID_204-1

> <s_m_subgroup_title>
ligprep_SpotXplore-out1

> <s_m_subgroupid>
ligprep_SpotXplore-out1

> <b_m_subgroup_collapsed>
0

$$$$
mol_ID_204
                    3D
 Schrodinger Suite 2020-4.
 22 23  0  0  1  0            999 V2000
   -0.0002   -0.0121   -0.0000 C   0  0  0  0  0  0
    1.4996    0.0257    0.0000 C   0  0  0  0  0  0
    2.3525    1.1690    0.0000 C   0  0  0  0  0  0
    3.6166    0.6454    0.0000 C   0  0  0  0  0  0
    4.9328    1.2860    0.0000 C   0  0  0  0  0  0
    6.1232    0.5206    0.0000 C   0  0  0  0  0  0
    7.3843    1.1476    0.0000 C   0  0  0  0  0  0
    7.4733    2.5514    0.0000 C   0  0  0  0  0  0
    6.2988    3.3255    0.0000 C   0  0  0  0  0  0
    5.0389    2.6958    0.0000 C   0  0  0  0  0  0
    3.4643   -0.7239    0.0000 N   0  0  0  0  0  0
    2.1763   -1.1133    0.0000 N   0  0  0  0  0  0
   -0.4205    0.9937   -0.0000 H   0  0  0  0  0  0
   -0.3796   -0.5299    0.8813 H   0  0  0  0  0  0
   -0.3796   -0.5299   -0.8814 H   0  0  0  0  0  0
    2.0715    2.2117   -0.0000 H   0  0  0  0  0  0
    6.0830   -0.5584    0.0000 H   0  0  0  0  0  0
    8.2838    0.5500    0.0000 H   0  0  0  0  0  0
    8.4400    3.0330    0.0000 H   0  0  0  0  0  0
    6.3634    4.4036    0.0000 H   0  0  0  0  0  0
    4.1503    3.3095   -0.0000 H   0  0  0  0  0  0
    4.2201   -1.3936    0.0000 H   0  0  0  0  0  0
  1 13  1  0  0  0
  1 14  1  0  0  0
  1 15  1  0  0  0
  1  2  1  0  0  0
  2 12  2  0  0  0
  2  3  1  0  0  0
  3  4  2  0  0  0
  3 16  1  0  0  0
  4 11  1  0  0  0
  4  5  1  0  0  0
  5 10  1  0  0  0
  5  6  2  0  0  0
  6  7  1  0  0  0
  6 17  1  0  0  0
  7  8  2  0  0  0
  7 18  1  0  0  0
  8  9  1  0  0  0
  8 19  1  0  0  0
  9 10  2  0  0  0
  9 20  1  0  0  0
 10 21  1  0  0  0
 11 12  1  0  0  0
 11 22  1  0  0  0
M  END
> <s_m_entry_id>
1094

> <s_m_entry_name>
Spot_Xplore.std.204

> <s_m_Source_Path>
/Volumes/cluster/ddu/2448959/Work/2023/01_Fragment_screening_lib/1_Library_Construction/Work/SpotX/Ph4_Hypo_JC2

> <s_m_Source_File>
SpotX.maegz

> <i_m_Source_File_Index>
228

> <s_m_job_name>
ligprep_SpotXplore

> <i_lp_mmshare_version>
52144

> <s_epik_input>
W0NIM11jMVtjSF1jKG5bbkhdMSktYzJbY0hdW2NIXVtjSF1bY0hdW2NIXTI=

> <s_epik_cmdline>
J2VwaWtfcHl0aG9uJywgJy1waHQnLCAnMS4wJywgJy1waCcsICc3LjAnLCAnLXRuJywgJzgnLCAnLW1hJywgJzIwMCcsICctaW1hZScsICc8aW5maWxlLm1hZT4nLCAnLW9tYWUnLCAnPG91dGZpbGUubWFlPic=

> <r_lp_tautomer_probability>
0.5

> <r_epik_Ionization_Penalty>
  0.0002

> <r_epik_Ionization_Penalty_Charging>
  0.0000

> <r_epik_Ionization_Penalty_Neutral>
  0.0002

> <r_epik_State_Penalty>
  0.4107

> <r_epik_Charging_Adjusted_Penalty>
0.410679838952604

> <i_epik_Tot_Q>
0

> <i_epik_Tot_abs_Q>
0

> <i_f3d_flags>
0

> <s_lp_Force_Field>
OPLS_2005

> <r_lp_Energy>
4.92342

> <b_lp_Chiralities_Consistent>
1

> <s_lp_Variant>
mol_ID_204-2

> <s_m_subgroup_title>
ligprep_SpotXplore-out1

> <s_m_subgroupid>
ligprep_SpotXplore-out1

> <b_m_subgroup_collapsed>
0

$$$$
mol_ID_205
                    3D
 Schrodinger Suite 2020-4.
 22 22  0  0  1  0            999 V2000
   -0.4716    1.7833   -0.0304 C   0  0  0  0  0  0
   -0.0637   -0.0095   -0.0558 S   0  0  0  0  0  0
   -0.5706   -0.6101    1.1879 O   0  0  0  0  0  0
   -0.4886   -0.5560   -1.3539 O   0  0  0  0  0  0
    1.7239   -0.0380    0.0029 C   0  0  0  0  0  0
    2.4648   -0.0213   -1.1938 C   0  0  0  0  0  0
    3.8718   -0.0128   -1.1399 C   0  0  0  0  0  0
    4.5505   -0.0101    0.0973 C   0  0  0  0  0  0
    5.9299   -0.0003    0.0483 O   0  0  0  0  0  0
    6.6761    0.0015    1.1865 C   0  0  0  0  0  0
    7.9917    0.0133    0.8625 F   0  0  0  0  0  0
    6.4463    1.1053    1.9411 F   0  0  0  0  0  0
    6.4635   -1.1114    1.9329 F   0  0  0  0  0  0
    3.7892   -0.0124    1.2948 C   0  0  0  0  0  0
    2.3815   -0.0211    1.2475 C   0  0  0  0  0  0
   -1.5539    1.9090   -0.0555 H   0  0  0  0  0  0
   -0.0293    2.2699   -0.8995 H   0  0  0  0  0  0
   -0.0760    2.2343    0.8794 H   0  0  0  0  0  0
    1.9632   -0.0160   -2.1503 H   0  0  0  0  0  0
    4.4377   -0.0058   -2.0600 H   0  0  0  0  0  0
    4.2621   -0.0049    2.2646 H   0  0  0  0  0  0
    1.8137   -0.0147    2.1661 H   0  0  0  0  0  0
  1  2  1  0  0  0
  1 16  1  0  0  0
  1 17  1  0  0  0
  1 18  1  0  0  0
  2  3  2  0  0  0
  2  4  2  0  0  0
  2  5  1  0  0  0
  5 15  1  0  0  0
  5  6  2  0  0  0
  6  7  1  0  0  0
  6 19  1  0  0  0
  7  8  2  0  0  0
  7 20  1  0  0  0
  8  9  1  0  0  0
  8 14  1  0  0  0
  9 10  1  0  0  0
 10 11  1  0  0  0
 10 12  1  0  0  0
 10 13  1  0  0  0
 14 15  2  0  0  0
 14 21  1  0  0  0
 15 22  1  0  0  0
M  END
> <s_m_entry_id>
1095

> <s_m_entry_name>
Spot_Xplore.std.205

> <s_m_Source_Path>
/Volumes/cluster/ddu/2448959/Work/2023/01_Fragment_screening_lib/1_Library_Construction/Work/SpotX/Ph4_Hypo_JC2

> <s_m_Source_File>
SpotX.maegz

> <i_m_Source_File_Index>
229

> <s_m_job_name>
ligprep_SpotXplore

> <i_lp_mmshare_version>
52144

> <s_epik_input>
W0NIM11TKD1PKSg9TyljMVtjSF1bY0hdYyhPQyhGKShGKUYpW2NIXVtjSF0x

> <s_epik_cmdline>
J2VwaWtfcHl0aG9uJywgJy1waHQnLCAnMS4wJywgJy1waCcsICc3LjAnLCAnLXRuJywgJzgnLCAnLW1hJywgJzIwMCcsICctaW1hZScsICc8aW5maWxlLm1hZT4nLCAnLW9tYWUnLCAnPG91dGZpbGUubWFlPic=

> <r_lp_tautomer_probability>
1

> <r_epik_Ionization_Penalty>
  0.0000

> <r_epik_Ionization_Penalty_Charging>
  0.0000

> <r_epik_Ionization_Penalty_Neutral>
  0.0000

> <r_epik_State_Penalty>
  0.0000

> <r_epik_Charging_Adjusted_Penalty>
0

> <i_epik_Tot_Q>
0

> <i_epik_Tot_abs_Q>
0

> <i_f3d_flags>
0

> <s_lp_Force_Field>
OPLS_2005

> <r_lp_Energy>
2.721844

> <b_lp_Chiralities_Consistent>
1

> <s_lp_Variant>
mol_ID_205-1

> <s_m_subgroup_title>
ligprep_SpotXplore-out1

> <s_m_subgroupid>
ligprep_SpotXplore-out1

> <b_m_subgroup_collapsed>
0

$$$$
mol_ID_206
                    3D
 Schrodinger Suite 2020-4.
 27 28  0  0  1  0            999 V2000
   -0.0130   -0.0732    0.0433 C   0  0  0  0  0  0
    1.5099    0.0108   -0.0441 C   0  0  0  0  0  0
    2.1566   -1.0336   -0.1165 O   0  0  0  0  0  0
    2.1342    1.3648   -0.0370 C   0  0  0  0  0  0
    1.3557    2.5431    0.0478 C   0  0  0  0  0  0
    1.9730    3.8083    0.0511 C   0  0  0  0  0  0
    3.3753    3.9158   -0.0252 C   0  0  0  0  0  0
    4.1659    2.7446   -0.1094 C   0  0  0  0  0  0
    3.5413    1.4804   -0.1152 C   0  0  0  0  0  0
    5.6875    2.8252   -0.1645 C   0  0  0  0  0  0
    6.1805    4.1786   -0.5005 N   0  3  0  0  0  0
    5.5200    5.2336    0.2912 C   0  0  0  0  0  0
    4.0271    5.2887   -0.0604 C   0  0  0  0  0  0
   -0.4732    0.4422   -0.7999 H   0  0  0  0  0  0
   -0.3684    0.3800    0.9689 H   0  0  0  0  0  0
   -0.3398   -1.1133    0.0255 H   0  0  0  0  0  0
    0.2784    2.5014    0.1078 H   0  0  0  0  0  0
    1.3637    4.6986    0.1067 H   0  0  0  0  0  0
    4.1575    0.5944   -0.1750 H   0  0  0  0  0  0
    6.0858    2.5324    0.8077 H   0  0  0  0  0  0
    6.0722    2.1162   -0.8982 H   0  0  0  0  0  0
    7.1773    4.2126   -0.3412 H   0  0  0  0  0  0
    5.6572    5.0228    1.3528 H   0  0  0  0  0  0
    5.9932    6.1952    0.0916 H   0  0  0  0  0  0
    3.8973    5.6977   -1.0631 H   0  0  0  0  0  0
    3.5078    5.9610    0.6237 H   0  0  0  0  0  0
    5.9989    4.3552   -1.4782 H   0  0  0  0  0  0
  1  2  1  0  0  0
  1 14  1  0  0  0
  1 15  1  0  0  0
  1 16  1  0  0  0
  2  3  2  0  0  0
  2  4  1  0  0  0
  4  9  1  0  0  0
  4  5  2  0  0  0
  5  6  1  0  0  0
  5 17  1  0  0  0
  6  7  2  0  0  0
  6 18  1  0  0  0
  7 13  1  0  0  0
  7  8  1  0  0  0
  8  9  2  0  0  0
  8 10  1  0  0  0
  9 19  1  0  0  0
 10 11  1  0  0  0
 10 20  1  0  0  0
 10 21  1  0  0  0
 11 12  1  0  0  0
 11 22  1  0  0  0
 11 27  1  0  0  0
 12 13  1  0  0  0
 12 23  1  0  0  0
 12 24  1  0  0  0
 13 25  1  0  0  0
 13 26  1  0  0  0
M  CHG  1  11   1
M  END
> <s_m_entry_id>
1096

> <s_m_entry_name>
Spot_Xplore.std.206

> <s_m_Source_Path>
/Volumes/cluster/ddu/2448959/Work/2023/01_Fragment_screening_lib/1_Library_Construction/Work/SpotX/Ph4_Hypo_JC2

> <s_m_Source_File>
SpotX.maegz

> <i_m_Source_File_Index>
230

> <s_m_job_name>
ligprep_SpotXplore

> <i_lp_mmshare_version>
52144

> <s_epik_input>
W0NIM11DKD1PKWMoW2NIXVtjSF0xKVtjSF1jKGMxMilbQ0gyXVtOSF1bQ0gyXVtDSDJdMg==

> <s_epik_cmdline>
J2VwaWtfcHl0aG9uJywgJy1waHQnLCAnMS4wJywgJy1waCcsICc3LjAnLCAnLXRuJywgJzgnLCAnLW1hJywgJzIwMCcsICctaW1hZScsICc8aW5maWxlLm1hZT4nLCAnLW9tYWUnLCAnPG91dGZpbGUubWFlPic=

> <r_lp_tautomer_probability>
0.99995

> <r_epik_Ionization_Penalty>
  0.0126

> <r_epik_Ionization_Penalty_Charging>
  0.0126

> <r_epik_Ionization_Penalty_Neutral>
  0.0000

> <r_epik_State_Penalty>
  0.0097

> <r_epik_Charging_Adjusted_Penalty>
0.0222880862994228

> <i_epik_Tot_Q>
1

> <i_epik_Tot_abs_Q>
1

> <i_f3d_flags>
0

> <s_lp_Force_Field>
OPLS_2005

> <r_lp_Energy>
19.074818

> <b_lp_Chiralities_Consistent>
1

> <s_lp_Variant>
mol_ID_206-1

> <s_m_subgroup_title>
ligprep_SpotXplore-out1

> <s_m_subgroupid>
ligprep_SpotXplore-out1

> <b_m_subgroup_collapsed>
0

$$$$
mol_ID_207
                    3D
 Schrodinger Suite 2020-4.
 19 20  0  0  1  0            999 V2000
   -2.8589   -0.1401    0.0921 C   0  0  0  0  0  0
   -2.0434   -1.2750    0.2571 C   0  0  0  0  0  0
   -0.6441   -1.1592    0.1469 C   0  0  0  0  0  0
   -0.0460    0.0863   -0.1396 C   0  0  0  0  0  0
    1.3540    0.1367   -0.2261 N   0  0  0  0  0  0
    2.1622    1.0386   -0.9186 C   0  0  0  0  0  0
    1.7418    2.0062   -1.7466 N   0  0  0  0  0  0
    2.7943    2.7303   -2.2904 N   0  0  0  0  0  0
    3.9735    2.2773   -1.8586 C   0  0  0  0  0  0
    3.9094    0.9230   -0.7460 S   0  0  0  0  0  0
   -0.8723    1.2253   -0.2891 C   0  0  0  0  0  0
   -2.2717    1.1103   -0.1770 C   0  0  0  0  0  0
   -3.9321   -0.2267    0.1784 H   0  0  0  0  0  0
   -2.4906   -2.2349    0.4697 H   0  0  0  0  0  0
   -0.0293   -2.0378    0.2788 H   0  0  0  0  0  0
    1.8407   -0.6498    0.1788 H   0  0  0  0  0  0
    4.8866    2.7428   -2.1988 H   0  0  0  0  0  0
   -0.4524    2.2019   -0.4726 H   0  0  0  0  0  0
   -2.8948    1.9848   -0.2926 H   0  0  0  0  0  0
  1 12  1  0  0  0
  1  2  2  0  0  0
  1 13  1  0  0  0
  2  3  1  0  0  0
  2 14  1  0  0  0
  3  4  2  0  0  0
  3 15  1  0  0  0
  4  5  1  0  0  0
  4 11  1  0  0  0
  5  6  1  0  0  0
  5 16  1  0  0  0
  6 10  1  0  0  0
  6  7  2  0  0  0
  7  8  1  0  0  0
  8  9  2  0  0  0
  9 10  1  0  0  0
  9 17  1  0  0  0
 11 12  2  0  0  0
 11 18  1  0  0  0
 12 19  1  0  0  0
M  END
> <s_m_entry_id>
1097

> <s_m_entry_name>
Spot_Xplore.std.207

> <s_m_Source_Path>
/Volumes/cluster/ddu/2448959/Work/2023/01_Fragment_screening_lib/1_Library_Construction/Work/SpotX/Ph4_Hypo_JC2

> <s_m_Source_File>
SpotX.maegz

> <i_m_Source_File_Index>
231

> <s_m_job_name>
ligprep_SpotXplore

> <i_lp_mmshare_version>
52144

> <s_epik_input>
W2NIXTFbY0hdW2NIXVtjSF1bY0hdYzFbTkhdYzJubltjSF1zMg==

> <s_epik_cmdline>
J2VwaWtfcHl0aG9uJywgJy1waHQnLCAnMS4wJywgJy1waCcsICc3LjAnLCAnLXRuJywgJzgnLCAnLW1hJywgJzIwMCcsICctaW1hZScsICc8aW5maWxlLm1hZT4nLCAnLW9tYWUnLCAnPG91dGZpbGUubWFlPic=

> <r_lp_tautomer_probability>
1

> <r_epik_Ionization_Penalty>
  0.0000

> <r_epik_Ionization_Penalty_Charging>
  0.0000

> <r_epik_Ionization_Penalty_Neutral>
  0.0000

> <r_epik_State_Penalty>
  0.0000

> <r_epik_Charging_Adjusted_Penalty>
0

> <i_epik_Tot_Q>
0

> <i_epik_Tot_abs_Q>
0

> <i_f3d_flags>
0

> <s_lp_Force_Field>
OPLS_2005

> <r_lp_Energy>
8.30403

> <b_lp_Chiralities_Consistent>
1

> <s_lp_Variant>
mol_ID_207-1

> <s_m_subgroup_title>
ligprep_SpotXplore-out1

> <s_m_subgroupid>
ligprep_SpotXplore-out1

> <b_m_subgroup_collapsed>
0

$$$$
mol_ID_208
                    3D
 Schrodinger Suite 2020-4.
 35 36  0  0  1  0            999 V2000
   -0.5804    1.6816   -0.6984 C   0  0  0  0  0  0
    0.0630    0.4338   -0.9127 O   0  0  0  0  0  0
    1.3333    0.2633   -0.4058 C   0  0  0  0  0  0
    2.0471    1.2585    0.3104 C   0  0  0  0  0  0
    3.3497    1.0035    0.7841 C   0  0  0  0  0  0
    3.9541   -0.2471    0.5584 C   0  0  0  0  0  0
    3.2417   -1.2440   -0.1330 C   0  0  0  0  0  0
    3.8870   -2.5083   -0.3755 N   0  0  0  0  0  0
    3.3379   -3.7100   -0.0835 C   0  0  0  0  0  0
    4.0836   -4.7720   -0.4650 N   0  3  0  0  0  0
    3.8052   -6.2128   -0.3605 C   0  0  0  0  0  0
    2.3239   -6.5379   -0.5669 C   0  0  0  0  0  0
    1.4994   -6.3467    0.7106 C   0  0  0  0  0  0
    1.8693   -5.0800    1.4949 C   0  0  0  0  0  0
    1.9942   -3.8264    0.6177 C   0  0  0  0  0  0
    1.9467   -0.9867   -0.6280 C   0  0  0  0  0  0
   -1.5713    1.6583   -1.1520 H   0  0  0  0  0  0
   -0.0265    2.5004   -1.1597 H   0  0  0  0  0  0
   -0.7099    1.8860    0.3653 H   0  0  0  0  0  0
    1.6188    2.2302    0.5039 H   0  0  0  0  0  0
    3.8870    1.7716    1.3210 H   0  0  0  0  0  0
    4.9541   -0.4368    0.9206 H   0  0  0  0  0  0
    4.8860   -2.5255   -0.5224 H   0  0  0  0  0  0
    4.3942   -6.7098   -1.1318 H   0  0  0  0  0  0
    4.1623   -6.5955    0.5961 H   0  0  0  0  0  0
    1.9216   -5.9051   -1.3594 H   0  0  0  0  0  0
    2.2126   -7.5628   -0.9225 H   0  0  0  0  0  0
    0.4410   -6.3242    0.4480 H   0  0  0  0  0  0
    1.6298   -7.2113    1.3626 H   0  0  0  0  0  0
    1.0983   -4.9127    2.2478 H   0  0  0  0  0  0
    2.7943   -5.2260    2.0533 H   0  0  0  0  0  0
    1.8599   -2.9684    1.2764 H   0  0  0  0  0  0
    1.1886   -3.7907   -0.1161 H   0  0  0  0  0  0
    1.4180   -1.7426   -1.1896 H   0  0  0  0  0  0
    4.9663   -4.5586   -0.9070 H   0  0  0  0  0  0
  1  2  1  0  0  0
  1 17  1  0  0  0
  1 18  1  0  0  0
  1 19  1  0  0  0
  2  3  1  0  0  0
  3 16  1  0  0  0
  3  4  2  0  0  0
  4  5  1  0  0  0
  4 20  1  0  0  0
  5  6  2  0  0  0
  5 21  1  0  0  0
  6  7  1  0  0  0
  6 22  1  0  0  0
  7  8  1  0  0  0
  7 16  2  0  0  0
  8  9  1  0  0  0
  8 23  1  0  0  0
  9 15  1  0  0  0
  9 10  2  0  0  0
 10 11  1  0  0  0
 10 35  1  0  0  0
 11 12  1  0  0  0
 11 24  1  0  0  0
 11 25  1  0  0  0
 12 13  1  0  0  0
 12 26  1  0  0  0
 12 27  1  0  0  0
 13 14  1  0  0  0
 13 28  1  0  0  0
 13 29  1  0  0  0
 14 15  1  0  0  0
 14 30  1  0  0  0
 14 31  1  0  0  0
 15 32  1  0  0  0
 15 33  1  0  0  0
 16 34  1  0  0  0
M  CHG  1  10   1
M  END
> <s_m_entry_id>
1098

> <s_m_entry_name>
Spot_Xplore.std.208

> <s_m_Source_Path>
/Volumes/cluster/ddu/2448959/Work/2023/01_Fragment_screening_lib/1_Library_Construction/Work/SpotX/Ph4_Hypo_JC2

> <s_m_Source_File>
SpotX.maegz

> <i_m_Source_File_Index>
232

> <s_m_job_name>
ligprep_SpotXplore

> <i_lp_mmshare_version>
52144

> <s_epik_input>
W0NIM11PYzFbY0hdW2NIXVtjSF1jKFtjSF0xKVtOSF1DMj1OW0NIMl1bQ0gyXVtDSDJdW0NIMl1bQ0gyXTI=

> <s_epik_cmdline>
J2VwaWtfcHl0aG9uJywgJy1waHQnLCAnMS4wJywgJy1waCcsICc3LjAnLCAnLXRuJywgJzgnLCAnLW1hJywgJzIwMCcsICctaW1hZScsICc8aW5maWxlLm1hZT4nLCAnLW9tYWUnLCAnPG91dGZpbGUubWFlPic=

> <r_epik_Ionization_Penalty>
  0.0715

> <r_epik_Ionization_Penalty_Charging>
  0.0715

> <r_epik_Ionization_Penalty_Neutral>
  0.0000

> <r_epik_State_Penalty>
  0.1196

> <r_epik_Charging_Adjusted_Penalty>
0.191098657491397

> <i_epik_Tot_Q>
1

> <i_epik_Tot_abs_Q>
1

> <i_f3d_flags>
0

> <s_lp_Force_Field>
OPLS_2005

> <r_lp_Energy>
26.313994

> <b_lp_Chiralities_Consistent>
1

> <s_lp_Variant>
mol_ID_208-1

> <s_epik_Chemistry_Notes>
This compound has an imine and may undergo hydrolysis.

> <s_m_subgroup_title>
ligprep_SpotXplore-out1

> <s_m_subgroupid>
ligprep_SpotXplore-out1

> <b_m_subgroup_collapsed>
0

$$$$
mol_ID_209
                    3D
 Schrodinger Suite 2020-4.
 27 28  0  0  1  0            999 V2000
   -0.2368    2.4905   -0.1518 C   0  0  0  0  0  0
   -0.7661    1.0989   -0.0186 C   0  0  0  0  0  0
   -2.0597    0.7631    0.0466 N   0  3  0  0  0  0
   -2.1958   -0.5935    0.1610 C   0  0  0  0  0  0
   -0.9269   -1.1102    0.1662 C   0  0  0  0  0  0
   -0.0669   -0.0469    0.0546 N   0  0  0  0  0  0
    1.3994   -0.1162    0.0097 C   0  0  0  0  0  0
    1.9218   -0.0454   -1.4144 C   0  0  0  0  0  0
    2.6553    1.0791   -1.8476 C   0  0  0  0  0  0
    3.1363    1.1440   -3.1695 C   0  0  0  0  0  0
    2.8893    0.0843   -4.0635 C   0  0  0  0  0  0
    2.1607   -1.0441   -3.6350 C   0  0  0  0  0  0
    1.9048   -2.1393   -4.5555 C   0  0  0  0  0  0
    1.7006   -3.0114   -5.2878 N   0  0  0  0  0  0
    1.6798   -1.1081   -2.3109 C   0  0  0  0  0  0
   -1.0662    3.1945   -0.0790 H   0  0  0  0  0  0
    0.2481    2.5885   -1.1230 H   0  0  0  0  0  0
    0.4772    2.6766    0.6506 H   0  0  0  0  0  0
   -3.1599   -1.0766    0.2276 H   0  0  0  0  0  0
   -0.5806   -2.1313    0.2368 H   0  0  0  0  0  0
    1.8096    0.6869    0.6231 H   0  0  0  0  0  0
    1.7113   -1.0563    0.4668 H   0  0  0  0  0  0
    2.8495    1.8976   -1.1698 H   0  0  0  0  0  0
    3.6957    2.0075   -3.4984 H   0  0  0  0  0  0
    3.2630    0.1426   -5.0760 H   0  0  0  0  0  0
    1.1219   -1.9724   -1.9795 H   0  0  0  0  0  0
   -2.8274    1.4222    0.0139 H   0  0  0  0  0  0
  1  2  1  0  0  0
  1 16  1  0  0  0
  1 17  1  0  0  0
  1 18  1  0  0  0
  2  6  1  0  0  0
  2  3  2  0  0  0
  3  4  1  0  0  0
  3 27  1  0  0  0
  4  5  2  0  0  0
  4 19  1  0  0  0
  5  6  1  0  0  0
  5 20  1  0  0  0
  6  7  1  0  0  0
  7  8  1  0  0  0
  7 21  1  0  0  0
  7 22  1  0  0  0
  8 15  1  0  0  0
  8  9  2  0  0  0
  9 10  1  0  0  0
  9 23  1  0  0  0
 10 11  2  0  0  0
 10 24  1  0  0  0
 11 12  1  0  0  0
 11 25  1  0  0  0
 12 13  1  0  0  0
 12 15  2  0  0  0
 13 14  3  0  0  0
 15 26  1  0  0  0
M  CHG  1   3   1
M  END
> <s_m_entry_id>
1099

> <s_m_entry_name>
Spot_Xplore.std.209

> <s_m_Source_Path>
/Volumes/cluster/ddu/2448959/Work/2023/01_Fragment_screening_lib/1_Library_Construction/Work/SpotX/Ph4_Hypo_JC2

> <s_m_Source_File>
SpotX.maegz

> <i_m_Source_File_Index>
233

> <s_m_job_name>
ligprep_SpotXplore

> <i_lp_mmshare_version>
52144

> <s_epik_input>
W0NIM11jMW5bY0hdW2NIXW4xW0NIMl1jMltjSF1bY0hdW2NIXWMoQyNOKVtjSF0y

> <s_epik_cmdline>
J2VwaWtfcHl0aG9uJywgJy1waHQnLCAnMS4wJywgJy1waCcsICc3LjAnLCAnLXRuJywgJzgnLCAnLW1hJywgJzIwMCcsICctaW1hZScsICc8aW5maWxlLm1hZT4nLCAnLW9tYWUnLCAnPG91dGZpbGUubWFlPic=

> <r_lp_tautomer_probability>
1

> <r_epik_Ionization_Penalty>
  0.1671

> <r_epik_Ionization_Penalty_Charging>
  0.0000

> <r_epik_Ionization_Penalty_Neutral>
  0.1671

> <r_epik_State_Penalty>
  0.1565

> <r_epik_Charging_Adjusted_Penalty>
0.156460760770246

> <i_epik_Tot_Q>
1

> <i_epik_Tot_abs_Q>
1

> <i_f3d_flags>
0

> <s_lp_Force_Field>
OPLS_2005

> <r_lp_Energy>
10.526865

> <b_lp_Chiralities_Consistent>
1

> <s_lp_Variant>
mol_ID_209-1

> <s_m_subgroup_title>
ligprep_SpotXplore-out1

> <s_m_subgroupid>
ligprep_SpotXplore-out1

> <b_m_subgroup_collapsed>
0

$$$$
mol_ID_209
                    3D
 Schrodinger Suite 2020-4.
 26 27  0  0  1  0            999 V2000
   -0.1836    2.4873    0.1049 C   0  0  0  0  0  0
   -0.7728    1.1182   -0.0042 C   0  0  0  0  0  0
   -2.0793    0.8794   -0.0625 N   0  0  0  0  0  0
   -2.1838   -0.5044   -0.1508 C   0  0  0  0  0  0
   -0.9262   -1.0573   -0.1430 C   0  0  0  0  0  0
   -0.0263   -0.0030   -0.0495 N   0  0  0  0  0  0
    1.4218   -0.1247   -0.0041 C   0  0  0  0  0  0
    1.9415   -0.0605    1.4214 C   0  0  0  0  0  0
    2.6872    1.0551    1.8568 C   0  0  0  0  0  0
    3.1662    1.1137    3.1797 C   0  0  0  0  0  0
    2.9040    0.0568    4.0727 C   0  0  0  0  0  0
    2.1622   -1.0623    3.6423 C   0  0  0  0  0  0
    1.8905   -2.1542    4.5620 C   0  0  0  0  0  0
    1.6741   -3.0237    5.2940 N   0  0  0  0  0  0
    1.6836   -1.1200    2.3172 C   0  0  0  0  0  0
   -0.9661    3.2437    0.0380 H   0  0  0  0  0  0
    0.5306    2.6600   -0.7002 H   0  0  0  0  0  0
    0.3239    2.6026    1.0624 H   0  0  0  0  0  0
   -3.1464   -0.9903   -0.2112 H   0  0  0  0  0  0
   -0.6048   -2.0872   -0.1928 H   0  0  0  0  0  0
    1.7113   -1.0764   -0.4516 H   0  0  0  0  0  0
    1.8693    0.6581   -0.6173 H   0  0  0  0  0  0
    2.8914    1.8712    1.1792 H   0  0  0  0  0  0
    3.7347    1.9705    3.5098 H   0  0  0  0  0  0
    3.2754    0.1105    5.0862 H   0  0  0  0  0  0
    1.1135   -1.9757    1.9837 H   0  0  0  0  0  0
  1  2  1  0  0  0
  1 16  1  0  0  0
  1 17  1  0  0  0
  1 18  1  0  0  0
  2  6  1  0  0  0
  2  3  2  0  0  0
  3  4  1  0  0  0
  4  5  2  0  0  0
  4 19  1  0  0  0
  5  6  1  0  0  0
  5 20  1  0  0  0
  6  7  1  0  0  0
  7  8  1  0  0  0
  7 21  1  0  0  0
  7 22  1  0  0  0
  8 15  1  0  0  0
  8  9  2  0  0  0
  9 10  1  0  0  0
  9 23  1  0  0  0
 10 11  2  0  0  0
 10 24  1  0  0  0
 11 12  1  0  0  0
 11 25  1  0  0  0
 12 13  1  0  0  0
 12 15  2  0  0  0
 13 14  3  0  0  0
 15 26  1  0  0  0
M  END
> <s_m_entry_id>
1100

> <s_m_entry_name>
Spot_Xplore.std.209

> <s_m_Source_Path>
/Volumes/cluster/ddu/2448959/Work/2023/01_Fragment_screening_lib/1_Library_Construction/Work/SpotX/Ph4_Hypo_JC2

> <s_m_Source_File>
SpotX.maegz

> <i_m_Source_File_Index>
234

> <s_m_job_name>
ligprep_SpotXplore

> <i_lp_mmshare_version>
52144

> <s_epik_input>
W0NIM11jMW5bY0hdW2NIXW4xW0NIMl1jMltjSF1bY0hdW2NIXWMoQyNOKVtjSF0y

> <s_epik_cmdline>
J2VwaWtfcHl0aG9uJywgJy1waHQnLCAnMS4wJywgJy1waCcsICc3LjAnLCAnLXRuJywgJzgnLCAnLW1hJywgJzIwMCcsICctaW1hZScsICc8aW5maWxlLm1hZT4nLCAnLW9tYWUnLCAnPG91dGZpbGUubWFlPic=

> <r_lp_tautomer_probability>
1

> <r_epik_Ionization_Penalty>
  0.8315

> <r_epik_Ionization_Penalty_Charging>
  0.8315

> <r_epik_Ionization_Penalty_Neutral>
  0.0000

> <r_epik_State_Penalty>
  0.8654

> <r_epik_Charging_Adjusted_Penalty>
1.69691352848304

> <i_epik_Tot_Q>
0

> <i_epik_Tot_abs_Q>
0

> <i_f3d_flags>
0

> <s_lp_Force_Field>
OPLS_2005

> <r_lp_Energy>
8.342513

> <b_lp_Chiralities_Consistent>
1

> <s_lp_Variant>
mol_ID_209-2

> <s_m_subgroup_title>
ligprep_SpotXplore-out1

> <s_m_subgroupid>
ligprep_SpotXplore-out1

> <b_m_subgroup_collapsed>
0

$$$$
mol_ID_210
                    3D
 Schrodinger Suite 2020-4.
 25 26  0  0  1  0            999 V2000
   -3.7135    0.8318    1.5161 O   0  0  0  0  0  0
   -2.6767    0.5150    0.9365 C   0  0  0  0  0  0
   -2.0054   -0.8404    1.1653 C   0  0  0  0  0  0
   -0.4720   -0.7101    1.2516 C   0  0  0  0  0  0
    0.0717    0.0926    0.1581 N   0  0  0  0  0  0
    1.4721    0.0572    0.0951 C   0  0  0  0  0  0
    2.0935   -0.5808   -0.9993 C   0  0  0  0  0  0
    3.5004   -0.6135   -1.0536 C   0  0  0  0  0  0
    4.2335   -0.0098   -0.0146 C   0  0  0  0  0  0
    3.5234    0.6024    1.0367 C   0  0  0  0  0  0
    2.1749    0.6391    1.0969 N   0  0  0  0  0  0
   -0.4767    1.4444    0.0681 C   0  0  0  0  0  0
   -2.0101    1.4355   -0.0874 C   0  0  0  0  0  0
   -2.3994   -1.2999    2.0721 H   0  0  0  0  0  0
   -2.2734   -1.4925    0.3338 H   0  0  0  0  0  0
   -0.1965   -0.2569    2.2050 H   0  0  0  0  0  0
   -0.0204   -1.7029    1.2331 H   0  0  0  0  0  0
    1.5053   -1.0363   -1.7827 H   0  0  0  0  0  0
    4.0073   -1.0932   -1.8776 H   0  0  0  0  0  0
    5.3133   -0.0160   -0.0231 H   0  0  0  0  0  0
    4.0520    1.0749    1.8512 H   0  0  0  0  0  0
   -0.2035    2.0073    0.9619 H   0  0  0  0  0  0
   -0.0273    1.9627   -0.7800 H   0  0  0  0  0  0
   -2.2774    1.0800   -1.0827 H   0  0  0  0  0  0
   -2.4079    2.4459    0.0092 H   0  0  0  0  0  0
  1  2  2  0  0  0
  2 13  1  0  0  0
  2  3  1  0  0  0
  3  4  1  0  0  0
  3 14  1  0  0  0
  3 15  1  0  0  0
  4  5  1  0  0  0
  4 16  1  0  0  0
  4 17  1  0  0  0
  5  6  1  0  0  0
  5 12  1  0  0  0
  6 11  1  0  0  0
  6  7  2  0  0  0
  7  8  1  0  0  0
  7 18  1  0  0  0
  8  9  2  0  0  0
  8 19  1  0  0  0
  9 10  1  0  0  0
  9 20  1  0  0  0
 10 11  2  0  0  0
 10 21  1  0  0  0
 12 13  1  0  0  0
 12 22  1  0  0  0
 12 23  1  0  0  0
 13 24  1  0  0  0
 13 25  1  0  0  0
M  END
> <s_m_entry_id>
1101

> <s_m_entry_name>
Spot_Xplore.std.210

> <s_m_Source_Path>
/Volumes/cluster/ddu/2448959/Work/2023/01_Fragment_screening_lib/1_Library_Construction/Work/SpotX/Ph4_Hypo_JC2

> <s_m_Source_File>
SpotX.maegz

> <i_m_Source_File_Index>
235

> <s_m_job_name>
ligprep_SpotXplore

> <i_lp_mmshare_version>
52144

> <s_epik_input>
Tz1DMVtDSDJdW0NIMl1OKFtDSDJdW0NIMl0xKWMyW2NIXVtjSF1bY0hdW2NIXW4y

> <s_epik_cmdline>
J2VwaWtfcHl0aG9uJywgJy1waHQnLCAnMS4wJywgJy1waCcsICc3LjAnLCAnLXRuJywgJzgnLCAnLW1hJywgJzIwMCcsICctaW1hZScsICc8aW5maWxlLm1hZT4nLCAnLW9tYWUnLCAnPG91dGZpbGUubWFlPic=

> <r_lp_tautomer_probability>
0.99999998

> <r_epik_Ionization_Penalty>
  0.0625

> <r_epik_Ionization_Penalty_Charging>
  0.0000

> <r_epik_Ionization_Penalty_Neutral>
  0.0625

> <r_epik_State_Penalty>
  0.0542

> <r_epik_Charging_Adjusted_Penalty>
0.0542134396816711

> <i_epik_Tot_Q>
0

> <i_epik_Tot_abs_Q>
0

> <i_f3d_flags>
0

> <s_lp_Force_Field>
OPLS_2005

> <r_lp_Energy>
6.814609

> <b_lp_Chiralities_Consistent>
1

> <s_lp_Variant>
mol_ID_210-1

> <s_m_subgroup_title>
ligprep_SpotXplore-out1

> <s_m_subgroupid>
ligprep_SpotXplore-out1

> <b_m_subgroup_collapsed>
0

$$$$
mol_ID_211
                    3D
 Schrodinger Suite 2020-4.
 23 24  0  0  1  0            999 V2000
   -2.2709    4.3465    1.1334 O   0  5  0  0  0  0
   -1.5365    3.3995    0.5227 C   0  0  0  0  0  0
   -1.5280    2.0463    0.6859 C   0  0  0  0  0  0
   -0.5356    1.6147   -0.2455 C   0  0  0  0  0  0
   -0.0812    0.2103   -0.5218 C   0  0  0  0  0  0
    0.9376   -0.3795    0.8606 S   0  0  0  0  0  0
    1.4466   -2.0386    0.5121 C   0  0  0  0  0  0
    2.2478   -2.7132    1.4556 C   0  0  0  0  0  0
    2.6715   -4.0339    1.2114 C   0  0  0  0  0  0
    2.2944   -4.6851    0.0210 C   0  0  0  0  0  0
    2.8128   -6.3031   -0.2797 Cl  0  0  0  0  0  0
    1.4939   -4.0144   -0.9242 C   0  0  0  0  0  0
    1.0696   -2.6932   -0.6814 C   0  0  0  0  0  0
    0.0107    2.6241   -0.9179 N   0  0  0  0  0  0
   -0.6114    3.7188   -0.4381 N   0  0  0  0  0  0
   -2.1305    1.4565    1.3605 H   0  0  0  0  0  0
   -0.3979    4.6489   -0.7687 H   0  0  0  0  0  0
    0.4982    0.1603   -1.4445 H   0  0  0  0  0  0
   -0.9427   -0.4471   -0.6398 H   0  0  0  0  0  0
    2.5400   -2.2181    2.3703 H   0  0  0  0  0  0
    3.2854   -4.5453    1.9382 H   0  0  0  0  0  0
    1.2038   -4.5120   -1.8379 H   0  0  0  0  0  0
    0.4573   -2.2021   -1.4214 H   0  0  0  0  0  0
  1  2  1  0  0  0
  2 15  1  0  0  0
  2  3  2  0  0  0
  3  4  1  0  0  0
  3 16  1  0  0  0
  4 14  2  0  0  0
  4  5  1  0  0  0
  5  6  1  0  0  0
  5 18  1  0  0  0
  5 19  1  0  0  0
  6  7  1  0  0  0
  7 13  1  0  0  0
  7  8  2  0  0  0
  8  9  1  0  0  0
  8 20  1  0  0  0
  9 10  2  0  0  0
  9 21  1  0  0  0
 10 11  1  0  0  0
 10 12  1  0  0  0
 12 13  2  0  0  0
 12 22  1  0  0  0
 13 23  1  0  0  0
 14 15  1  0  0  0
 15 17  1  0  0  0
M  CHG  1   1  -1
M  END
> <s_m_entry_id>
1102

> <s_m_entry_name>
Spot_Xplore.std.211

> <s_m_Source_Path>
/Volumes/cluster/ddu/2448959/Work/2023/01_Fragment_screening_lib/1_Library_Construction/Work/SpotX/Ph4_Hypo_JC2

> <s_m_Source_File>
SpotX.maegz

> <i_m_Source_File_Index>
236

> <s_m_job_name>
ligprep_SpotXplore

> <i_lp_mmshare_version>
52144

> <s_epik_input>
Tz1DMVtDSDJdQyg9TltOSF0xKVtDSDJdU2MyW2NIXVtjSF1jKENsKVtjSF1bY0hdMg==

> <s_epik_cmdline>
J2VwaWtfcHl0aG9uJywgJy1waHQnLCAnMS4wJywgJy1waCcsICc3LjAnLCAnLXRuJywgJzgnLCAnLW1hJywgJzIwMCcsICctaW1hZScsICc8aW5maWxlLm1hZT4nLCAnLW9tYWUnLCAnPG91dGZpbGUubWFlPic=

> <r_lp_tautomer_probability>
0.994950157553978

> <r_epik_Ionization_Penalty>
  0.1265

> <r_epik_Ionization_Penalty_Charging>
  0.0007

> <r_epik_Ionization_Penalty_Neutral>
  0.1258

> <r_epik_State_Penalty>
  0.0110

> <r_epik_Charging_Adjusted_Penalty>
0.0117204593626958

> <i_epik_Tot_Q>
-1

> <i_epik_Tot_abs_Q>
1

> <i_f3d_flags>
0

> <s_lp_Force_Field>
OPLS_2005

> <r_lp_Energy>
2.929843

> <b_lp_Chiralities_Consistent>
1

> <s_lp_Variant>
mol_ID_211-1

> <s_m_subgroup_title>
ligprep_SpotXplore-out1

> <s_m_subgroupid>
ligprep_SpotXplore-out1

> <b_m_subgroup_collapsed>
0

$$$$
mol_ID_212
                    3D
 Schrodinger Suite 2020-4.
 18 19  0  0  1  0            999 V2000
   -4.7150   -0.0186   -0.0000 Br  0  0  0  0  0  0
   -2.8120   -0.0107   -0.0000 C   0  0  0  0  0  0
   -2.1115    1.2095    0.0000 C   0  0  0  0  0  0
   -0.7030    1.2149    0.0000 C   0  0  0  0  0  0
    0.0243    0.0023   -0.0000 C   0  0  0  0  0  0
    1.4965    0.0276    0.0000 C   0  0  0  0  0  0
    2.3668    1.1572    0.0000 C   0  0  0  0  0  0
    3.6179    0.6118    0.0000 C   0  0  0  0  0  0
    3.5448   -0.7406    0.0000 O   0  0  0  0  0  0
    2.1935   -1.1023   -0.0000 N   0  0  0  0  0  0
   -0.6930   -1.2186   -0.0000 C   0  0  0  0  0  0
   -2.1014   -1.2250   -0.0000 C   0  0  0  0  0  0
   -2.6538    2.1434    0.0000 H   0  0  0  0  0  0
   -0.1887    2.1643    0.0000 H   0  0  0  0  0  0
    2.1177    2.2076    0.0000 H   0  0  0  0  0  0
    4.6120    1.0340    0.0000 H   0  0  0  0  0  0
   -0.1723   -2.1647   -0.0000 H   0  0  0  0  0  0
   -2.6357   -2.1637   -0.0000 H   0  0  0  0  0  0
  1  2  1  0  0  0
  2 12  1  0  0  0
  2  3  2  0  0  0
  3  4  1  0  0  0
  3 13  1  0  0  0
  4  5  2  0  0  0
  4 14  1  0  0  0
  5  6  1  0  0  0
  5 11  1  0  0  0
  6 10  2  0  0  0
  6  7  1  0  0  0
  7  8  2  0  0  0
  7 15  1  0  0  0
  8  9  1  0  0  0
  8 16  1  0  0  0
  9 10  1  0  0  0
 11 12  2  0  0  0
 11 17  1  0  0  0
 12 18  1  0  0  0
M  END
> <s_m_entry_id>
1103

> <s_m_entry_name>
Spot_Xplore.std.212

> <s_m_Source_Path>
/Volumes/cluster/ddu/2448959/Work/2023/01_Fragment_screening_lib/1_Library_Construction/Work/SpotX/Ph4_Hypo_JC2

> <s_m_Source_File>
SpotX.maegz

> <i_m_Source_File_Index>
237

> <s_m_job_name>
ligprep_SpotXplore

> <i_lp_mmshare_version>
52144

> <s_epik_input>
QnJjMVtjSF1bY0hdYyhbY0hdW2NIXTEpLWMyW2NIXVtjSF1vbjI=

> <s_epik_cmdline>
J2VwaWtfcHl0aG9uJywgJy1waHQnLCAnMS4wJywgJy1waCcsICc3LjAnLCAnLXRuJywgJzgnLCAnLW1hJywgJzIwMCcsICctaW1hZScsICc8aW5maWxlLm1hZT4nLCAnLW9tYWUnLCAnPG91dGZpbGUubWFlPic=

> <r_lp_tautomer_probability>
1

> <r_epik_Ionization_Penalty>
  0.0000

> <r_epik_Ionization_Penalty_Charging>
  0.0000

> <r_epik_Ionization_Penalty_Neutral>
  0.0000

> <r_epik_State_Penalty>
  0.0000

> <r_epik_Charging_Adjusted_Penalty>
0

> <i_epik_Tot_Q>
0

> <i_epik_Tot_abs_Q>
0

> <i_f3d_flags>
0

> <s_lp_Force_Field>
OPLS_2005

> <r_lp_Energy>
5.93143

> <b_lp_Chiralities_Consistent>
1

> <s_lp_Variant>
mol_ID_212-1

> <s_m_subgroup_title>
ligprep_SpotXplore-out1

> <s_m_subgroupid>
ligprep_SpotXplore-out1

> <b_m_subgroup_collapsed>
0

$$$$
mol_ID_213
                    3D
 Schrodinger Suite 2020-4.
 35 36  0  0  1  0            999 V2000
   -0.5523    1.0960   -0.5610 C   0  0  0  0  0  0
    0.1775   -0.0976   -0.3174 O   0  0  0  0  0  0
    1.5280    0.0007   -0.0500 C   0  0  0  0  0  0
    2.2197    1.2367    0.0308 C   0  0  0  0  0  0
    3.6013    1.2699    0.2977 C   0  0  0  0  0  0
    4.3122    0.0720    0.4858 C   0  0  0  0  0  0
    3.6382   -1.1597    0.4096 C   0  0  0  0  0  0
    2.2529   -1.2014    0.1449 C   0  0  0  0  0  0
    1.5606   -2.5554    0.0730 C   0  0  0  0  0  0
    1.7144   -3.2527   -1.2941 C   0  0  0  0  0  0
    1.1330   -4.6795   -1.2535 C   0  0  0  0  0  0
    1.2643   -5.3802   -2.6159 C   0  0  0  0  0  0
    0.6216   -4.5789   -3.6789 N   0  3  0  0  0  0
    1.1837   -3.2158   -3.7858 C   0  0  0  0  0  0
    1.0581   -2.4658   -2.4489 C   0  0  0  0  0  0
   -1.5918    0.8440   -0.7702 H   0  0  0  0  0  0
   -0.1628    1.6316   -1.4279 H   0  0  0  0  0  0
   -0.5421    1.7554    0.3080 H   0  0  0  0  0  0
    1.7123    2.1790   -0.1083 H   0  0  0  0  0  0
    4.1164    2.2174    0.3574 H   0  0  0  0  0  0
    5.3727    0.0977    0.6896 H   0  0  0  0  0  0
    4.1896   -2.0770    0.5553 H   0  0  0  0  0  0
    1.9878   -3.1884    0.8520 H   0  0  0  0  0  0
    0.5055   -2.4558    0.3293 H   0  0  0  0  0  0
    2.7813   -3.3383   -1.5070 H   0  0  0  0  0  0
    1.6407   -5.2696   -0.4895 H   0  0  0  0  0  0
    0.0816   -4.6408   -0.9643 H   0  0  0  0  0  0
    2.3153   -5.5336   -2.8651 H   0  0  0  0  0  0
    0.7974   -6.3648   -2.5814 H   0  0  0  0  0  0
    0.7365   -5.0527   -4.5636 H   0  0  0  0  0  0
    2.2300   -3.2815   -4.0872 H   0  0  0  0  0  0
    0.6583   -2.6751   -4.5733 H   0  0  0  0  0  0
    0.0044   -2.2922   -2.2254 H   0  0  0  0  0  0
    1.5177   -1.4823   -2.5495 H   0  0  0  0  0  0
   -0.3648   -4.5045   -3.4742 H   0  0  0  0  0  0
  1  2  1  0  0  0
  1 16  1  0  0  0
  1 17  1  0  0  0
  1 18  1  0  0  0
  2  3  1  0  0  0
  3  8  1  0  0  0
  3  4  2  0  0  0
  4  5  1  0  0  0
  4 19  1  0  0  0
  5  6  2  0  0  0
  5 20  1  0  0  0
  6  7  1  0  0  0
  6 21  1  0  0  0
  7  8  2  0  0  0
  7 22  1  0  0  0
  8  9  1  0  0  0
  9 10  1  0  0  0
  9 23  1  0  0  0
  9 24  1  0  0  0
 10 15  1  0  0  0
 10 11  1  0  0  0
 10 25  1  0  0  0
 11 12  1  0  0  0
 11 26  1  0  0  0
 11 27  1  0  0  0
 12 13  1  0  0  0
 12 28  1  0  0  0
 12 29  1  0  0  0
 13 14  1  0  0  0
 13 30  1  0  0  0
 13 35  1  0  0  0
 14 15  1  0  0  0
 14 31  1  0  0  0
 14 32  1  0  0  0
 15 33  1  0  0  0
 15 34  1  0  0  0
M  CHG  1  13   1
M  END
> <s_m_entry_id>
1104

> <s_m_entry_name>
Spot_Xplore.std.213

> <s_m_Source_Path>
/Volumes/cluster/ddu/2448959/Work/2023/01_Fragment_screening_lib/1_Library_Construction/Work/SpotX/Ph4_Hypo_JC2

> <s_m_Source_File>
SpotX.maegz

> <i_m_Source_File_Index>
238

> <s_m_job_name>
ligprep_SpotXplore

> <i_lp_mmshare_version>
52144

> <s_epik_input>
W0NIM11PYzFbY0hdW2NIXVtjSF1bY0hdYzFbQ0gyXVtDSF0yW0NIMl1bQ0gyXVtOSF1bQ0gyXVtDSDJdMg==

> <s_epik_cmdline>
J2VwaWtfcHl0aG9uJywgJy1waHQnLCAnMS4wJywgJy1waCcsICc3LjAnLCAnLXRuJywgJzgnLCAnLW1hJywgJzIwMCcsICctaW1hZScsICc8aW5maWxlLm1hZT4nLCAnLW9tYWUnLCAnPG91dGZpbGUubWFlPic=

> <r_lp_tautomer_probability>
1

> <r_epik_Ionization_Penalty>
  0.0004

> <r_epik_Ionization_Penalty_Charging>
  0.0004

> <r_epik_Ionization_Penalty_Neutral>
  0.0000

> <r_epik_State_Penalty>
  0.0000

> <r_epik_Charging_Adjusted_Penalty>
0.000387378879942329

> <i_epik_Tot_Q>
1

> <i_epik_Tot_abs_Q>
1

> <i_f3d_flags>
0

> <s_lp_Force_Field>
OPLS_2005

> <r_lp_Energy>
20.414803

> <b_lp_Chiralities_Consistent>
1

> <s_lp_Variant>
mol_ID_213-1

> <s_m_subgroup_title>
ligprep_SpotXplore-out1

> <s_m_subgroupid>
ligprep_SpotXplore-out1

> <b_m_subgroup_collapsed>
0

$$$$
mol_ID_214
                    3D
 Schrodinger Suite 2020-4.
 29 31  0  0  1  0            999 V2000
   -0.6604   -2.9776   -0.2411 O   0  0  0  0  0  0
    0.2219   -2.6018    0.5291 C   0  0  0  0  0  0
    1.2537   -3.3800    0.8989 N   0  0  0  0  0  0
    2.2432   -3.0324    1.9335 C   0  0  0  0  0  0
    3.5176   -3.8592    1.7266 C   0  0  0  0  0  0
    3.2113   -5.2367    2.3309 C   0  0  0  0  0  0
    2.0644   -5.0196    3.3318 C   0  0  0  0  0  0
    1.7640   -3.5156    3.3114 C   0  0  0  0  0  0
    2.5155   -1.5922    1.9056 N   0  0  0  0  0  0
    1.3974   -0.7553    1.7776 C   0  0  0  0  0  0
    1.4361    0.5507    2.3056 C   0  0  0  0  0  0
    0.3129    1.3917    2.1893 C   0  0  0  0  0  0
   -0.8495    0.9306    1.5420 C   0  0  0  0  0  0
   -0.8906   -0.3711    1.0061 C   0  0  0  0  0  0
    0.2315   -1.2209    1.1218 C   0  0  0  0  0  0
    1.3102   -4.3085    0.5061 H   0  0  0  0  0  0
    3.8236   -3.9185    0.6812 H   0  0  0  0  0  0
    4.3443   -3.4093    2.2790 H   0  0  0  0  0  0
    2.8961   -5.9309    1.5512 H   0  0  0  0  0  0
    4.0939   -5.6622    2.8093 H   0  0  0  0  0  0
    1.1857   -5.5808    3.0115 H   0  0  0  0  0  0
    2.3230   -5.3622    4.3341 H   0  0  0  0  0  0
    2.3439   -3.0280    4.0969 H   0  0  0  0  0  0
    0.7128   -3.2968    3.5046 H   0  0  0  0  0  0
    3.2738   -1.2583    2.4831 H   0  0  0  0  0  0
    2.3241    0.9107    2.8047 H   0  0  0  0  0  0
    0.3434    2.3915    2.5965 H   0  0  0  0  0  0
   -1.7096    1.5777    1.4525 H   0  0  0  0  0  0
   -1.7867   -0.7084    0.5053 H   0  0  0  0  0  0
  1  2  2  0  0  0
  2 15  1  0  0  0
  2  3  1  0  0  0
  3  4  1  0  0  0
  3 16  1  0  0  0
  4  8  1  0  0  0
  4  5  1  0  0  0
  4  9  1  0  0  0
  5  6  1  0  0  0
  5 17  1  0  0  0
  5 18  1  0  0  0
  6  7  1  0  0  0
  6 19  1  0  0  0
  6 20  1  0  0  0
  7  8  1  0  0  0
  7 21  1  0  0  0
  7 22  1  0  0  0
  8 23  1  0  0  0
  8 24  1  0  0  0
  9 10  1  0  0  0
  9 25  1  0  0  0
 10 15  2  0  0  0
 10 11  1  0  0  0
 11 12  2  0  0  0
 11 26  1  0  0  0
 12 13  1  0  0  0
 12 27  1  0  0  0
 13 14  2  0  0  0
 13 28  1  0  0  0
 14 15  1  0  0  0
 14 29  1  0  0  0
M  END
> <s_m_entry_id>
1105

> <s_m_entry_name>
Spot_Xplore.std.214

> <s_m_Source_Path>
/Volumes/cluster/ddu/2448959/Work/2023/01_Fragment_screening_lib/1_Library_Construction/Work/SpotX/Ph4_Hypo_JC2

> <s_m_Source_File>
SpotX.maegz

> <i_m_Source_File_Index>
239

> <s_m_job_name>
ligprep_SpotXplore

> <i_lp_mmshare_version>
52144

> <s_epik_input>
W2NIXTFbY0hdW2NIXVtjSF1jKFtOSF0yKWMxQyg9TylbTkhdQzIzW0NIMl1bQ0gyXVtDSDJdW0NIMl0z

> <s_epik_cmdline>
J2VwaWtfcHl0aG9uJywgJy1waHQnLCAnMS4wJywgJy1waCcsICc3LjAnLCAnLXRuJywgJzgnLCAnLW1hJywgJzIwMCcsICctaW1hZScsICc8aW5maWxlLm1hZT4nLCAnLW9tYWUnLCAnPG91dGZpbGUubWFlPic=

> <r_lp_tautomer_probability>
1

> <r_epik_Ionization_Penalty>
  0.0001

> <r_epik_Ionization_Penalty_Charging>
  0.0000

> <r_epik_Ionization_Penalty_Neutral>
  0.0001

> <r_epik_State_Penalty>
  0.0000

> <r_epik_Charging_Adjusted_Penalty>
0

> <i_epik_Tot_Q>
0

> <i_epik_Tot_abs_Q>
0

> <i_f3d_flags>
0

> <s_lp_Force_Field>
OPLS_2005

> <r_lp_Energy>
33.469049

> <b_lp_Chiralities_Consistent>
1

> <s_lp_Variant>
mol_ID_214-1

> <s_m_subgroup_title>
ligprep_SpotXplore-out1

> <s_m_subgroupid>
ligprep_SpotXplore-out1

> <b_m_subgroup_collapsed>
0

$$$$
mol_ID_215
                    3D
 Schrodinger Suite 2020-4.
 24 25  0  0  1  0            999 V2000
   -0.0685    0.0619   -0.0142 C   0  0  0  0  0  0
    1.4660    0.0051   -0.0236 C   0  0  1  0  0  0
    2.0499    0.6746   -1.2894 C   0  0  0  0  0  0
    3.5838    0.5647   -1.3482 C   0  0  0  0  0  0
    4.2025    0.8679   -0.0260 C   0  0  0  0  0  0
    5.8889    1.2645    0.1604 S   0  0  0  0  0  0
    5.6933    1.4347    1.8903 C   0  0  0  0  0  0
    6.8813    1.7932    2.6918 C   0  0  0  0  0  0
    6.7415    1.9120    3.9289 O   0  0  0  0  0  0
    7.9812    1.9664    2.1207 O   0  5  0  0  0  0
    4.3947    1.2006    2.2676 C   0  0  0  0  0  0
    3.5374    0.8803    1.1724 C   0  0  0  0  0  0
    2.0642    0.5990    1.2764 C   0  0  0  0  0  0
   -0.4276    1.0914    0.0024 H   0  0  0  0  0  0
   -0.4743   -0.4469    0.8606 H   0  0  0  0  0  0
   -0.4849   -0.4212   -0.8986 H   0  0  0  0  0  0
    1.7578   -1.0454   -0.0626 H   0  0  0  0  0  0
    1.6145    0.2469   -2.1930 H   0  0  0  0  0  0
    1.7716    1.7295   -1.2843 H   0  0  0  0  0  0
    3.8647   -0.4466   -1.6439 H   0  0  0  0  0  0
    3.9782    1.2334   -2.1139 H   0  0  0  0  0  0
    4.0336    1.2532    3.2842 H   0  0  0  0  0  0
    1.5498    1.5312    1.5127 H   0  0  0  0  0  0
    1.8640   -0.0721    2.1122 H   0  0  0  0  0  0
  1  2  1  0  0  0
  1 14  1  0  0  0
  1 15  1  0  0  0
  1 16  1  0  0  0
  2 13  1  0  0  0
  2  3  1  0  0  0
  2 17  1  0  0  0
  3  4  1  0  0  0
  3 18  1  0  0  0
  3 19  1  0  0  0
  4  5  1  0  0  0
  4 20  1  0  0  0
  4 21  1  0  0  0
  5 12  2  0  0  0
  5  6  1  0  0  0
  6  7  1  0  0  0
  7  8  1  0  0  0
  7 11  2  0  0  0
  8  9  2  0  0  0
  8 10  1  0  0  0
 11 12  1  0  0  0
 11 22  1  0  0  0
 12 13  1  0  0  0
 13 23  1  0  0  0
 13 24  1  0  0  0
M  CHG  1  10  -1
M  END
> <s_m_entry_id>
1106

> <s_m_entry_name>
Spot_Xplore.std.215

> <s_m_Source_Path>
/Volumes/cluster/ddu/2448959/Work/2023/01_Fragment_screening_lib/1_Library_Construction/Work/SpotX/Ph4_Hypo_JC2

> <s_m_Source_File>
SpotX.maegz

> <i_m_Source_File_Index>
240

> <s_m_job_name>
ligprep_SpotXplore

> <i_lp_mmshare_version>
52144

> <s_epik_input>
W0NIMl0xW0NIMl1bQ0BIXShbQ0gzXSlbQ0gyXWMoYzEyKVtjSF1jKHMyKUMoPU8pW09IXQ==

> <s_epik_cmdline>
J2VwaWtfcHl0aG9uJywgJy1waHQnLCAnMS4wJywgJy1waCcsICc3LjAnLCAnLXRuJywgJzgnLCAnLW1hJywgJzIwMCcsICctaW1hZScsICc8aW5maWxlLm1hZT4nLCAnLW9tYWUnLCAnPG91dGZpbGUubWFlPic=

> <r_lp_tautomer_probability>
1

> <r_epik_Ionization_Penalty>
  0.0003

> <r_epik_Ionization_Penalty_Charging>
  0.0003

> <r_epik_Ionization_Penalty_Neutral>
  0.0000

> <r_epik_State_Penalty>
  0.0000

> <r_epik_Charging_Adjusted_Penalty>
0.000346228030048711

> <i_epik_Tot_Q>
-1

> <i_epik_Tot_abs_Q>
1

> <i_f3d_flags>
0

> <s_lp_Force_Field>
OPLS_2005

> <r_lp_Energy>
6.604735

> <b_lp_Chiralities_Consistent>
1

> <s_lp_Variant>
mol_ID_215-1

> <s_m_subgroup_title>
ligprep_SpotXplore-out1

> <s_m_subgroupid>
ligprep_SpotXplore-out1

> <b_m_subgroup_collapsed>
0

$$$$
mol_ID_216
                    3D
 Schrodinger Suite 2020-4.
 27 28  0  0  1  0            999 V2000
   -0.5495    1.3528   -0.0049 O   0  0  0  0  0  0
   -0.0639    0.1996   -0.0044 C   0  0  0  0  0  0
   -0.7250   -0.8617   -0.0052 O   0  5  0  0  0  0
    1.4648    0.0646   -0.0025 C   0  0  0  0  0  0
    2.0722    0.7234   -1.2580 C   0  0  0  0  0  0
    3.6079    0.6495   -1.2237 C   0  0  0  0  0  0
    4.1364    1.2307    0.0074 N   0  0  0  0  0  0
    5.4835    1.5396    0.0069 C   0  0  0  0  0  0
    6.3510    0.5207    0.0457 N   0  0  0  0  0  0
    7.6641    0.8359    0.0391 C   0  0  0  0  0  0
    8.1056    2.1734   -0.0052 C   0  0  0  0  0  0
    7.1002    3.1602   -0.0429 C   0  0  0  0  0  0
    5.7884    2.8397   -0.0380 N   0  0  0  0  0  0
    3.6040    0.6368    1.2310 C   0  0  0  0  0  0
    2.0682    0.7118    1.2607 C   0  0  0  0  0  0
    1.7185   -0.9971   -0.0070 H   0  0  0  0  0  0
    1.7011    0.2340   -2.1592 H   0  0  0  0  0  0
    1.7682    1.7694   -1.3239 H   0  0  0  0  0  0
    3.9331   -0.3891   -1.2960 H   0  0  0  0  0  0
    4.0229    1.1735   -2.0857 H   0  0  0  0  0  0
    8.3666    0.0161    0.0689 H   0  0  0  0  0  0
    9.1549    2.4279   -0.0103 H   0  0  0  0  0  0
    7.3497    4.2104   -0.0775 H   0  0  0  0  0  0
    3.9282   -0.4027    1.2947 H   0  0  0  0  0  0
    4.0165    1.1529    2.0989 H   0  0  0  0  0  0
    1.7646    1.7574    1.3345 H   0  0  0  0  0  0
    1.6934    0.2151    2.1565 H   0  0  0  0  0  0
  1  2  2  0  0  0
  2  3  1  0  0  0
  2  4  1  0  0  0
  4 15  1  0  0  0
  4  5  1  0  0  0
  4 16  1  0  0  0
  5  6  1  0  0  0
  5 17  1  0  0  0
  5 18  1  0  0  0
  6  7  1  0  0  0
  6 19  1  0  0  0
  6 20  1  0  0  0
  7  8  1  0  0  0
  7 14  1  0  0  0
  8 13  1  0  0  0
  8  9  2  0  0  0
  9 10  1  0  0  0
 10 11  2  0  0  0
 10 21  1  0  0  0
 11 12  1  0  0  0
 11 22  1  0  0  0
 12 13  2  0  0  0
 12 23  1  0  0  0
 14 15  1  0  0  0
 14 24  1  0  0  0
 14 25  1  0  0  0
 15 26  1  0  0  0
 15 27  1  0  0  0
M  CHG  1   3  -1
M  END
> <s_m_entry_id>
1107

> <s_m_entry_name>
Spot_Xplore.std.216

> <s_m_Source_Path>
/Volumes/cluster/ddu/2448959/Work/2023/01_Fragment_screening_lib/1_Library_Construction/Work/SpotX/Ph4_Hypo_JC2

> <s_m_Source_File>
SpotX.maegz

> <i_m_Source_File_Index>
241

> <s_m_job_name>
ligprep_SpotXplore

> <i_lp_mmshare_version>
52144

> <s_epik_input>
Tz1DKFtPSF0pW0NIXTFbQ0gyXVtDSDJdTihbQ0gyXVtDSDJdMSljMm5bY0hdW2NIXVtjSF1uMg==

> <s_epik_cmdline>
J2VwaWtfcHl0aG9uJywgJy1waHQnLCAnMS4wJywgJy1waCcsICc3LjAnLCAnLXRuJywgJzgnLCAnLW1hJywgJzIwMCcsICctaW1hZScsICc8aW5maWxlLm1hZT4nLCAnLW9tYWUnLCAnPG91dGZpbGUubWFlPic=

> <r_lp_tautomer_probability>
1

> <r_epik_Ionization_Penalty>
  0.0022

> <r_epik_Ionization_Penalty_Charging>
  0.0020

> <r_epik_Ionization_Penalty_Neutral>
  0.0002

> <r_epik_State_Penalty>
  0.0000

> <r_epik_Charging_Adjusted_Penalty>
0.00198371101121492

> <i_epik_Tot_Q>
-1

> <i_epik_Tot_abs_Q>
1

> <i_f3d_flags>
0

> <s_lp_Force_Field>
OPLS_2005

> <r_lp_Energy>
11.185731

> <b_lp_Chiralities_Consistent>
1

> <s_lp_Variant>
mol_ID_216-1

> <s_m_subgroup_title>
ligprep_SpotXplore-out1

> <s_m_subgroupid>
ligprep_SpotXplore-out1

> <b_m_subgroup_collapsed>
0

$$$$
mol_ID_217
                    3D
 Schrodinger Suite 2020-4.
 30 31  0  0  1  0            999 V2000
   -0.4765    1.5488   -0.0592 C   0  0  0  0  0  0
    0.0444    0.0921   -0.0169 C   0  0  2  0  0  0
    1.5948    0.0990    0.0115 C   0  0  0  0  0  0
    2.1183    0.6855    1.2576 N   0  3  0  0  0  0
   -0.4878   -0.6737   -1.1664 N   0  0  1  0  0  0
    0.0251   -2.0552   -1.2846 C   0  0  0  0  0  0
   -0.3399   -2.9373   -0.0578 C   0  0  0  0  0  0
   -1.7747   -2.7637    0.3198 C   0  0  0  0  0  0
   -2.6465   -3.7916    1.4211 S   0  0  0  0  0  0
   -4.0855   -2.8217    1.2216 C   0  0  0  0  0  0
   -3.8837   -1.7806    0.3510 C   0  0  0  0  0  0
   -2.5541   -1.7505   -0.1624 C   0  0  0  0  0  0
   -1.9562   -0.7950   -1.1518 C   0  0  0  0  0  0
    0.0167    2.1772    0.6819 H   0  0  0  0  0  0
   -1.5400    1.6166    0.1660 H   0  0  0  0  0  0
   -0.3065    2.0046   -1.0354 H   0  0  0  0  0  0
   -0.3086   -0.3702    0.9057 H   0  0  0  0  0  0
    2.0118   -0.9053   -0.0165 H   0  0  0  0  0  0
    1.9979    0.6404   -0.8452 H   0  0  0  0  0  0
    3.1279    0.6630    1.2424 H   0  0  0  0  0  0
    1.7813    0.1544    2.0478 H   0  0  0  0  0  0
   -0.4226   -2.4967   -2.1766 H   0  0  0  0  0  0
    1.0959   -2.0772   -1.4797 H   0  0  0  0  0  0
   -0.1381   -3.9844   -0.2845 H   0  0  0  0  0  0
    0.2913   -2.6811    0.7932 H   0  0  0  0  0  0
   -4.9900   -3.0808    1.7520 H   0  0  0  0  0  0
   -4.6324   -1.0554    0.0682 H   0  0  0  0  0  0
   -2.4308    0.1799   -1.0667 H   0  0  0  0  0  0
   -2.2429   -1.1287   -2.1500 H   0  0  0  0  0  0
    1.8034    1.6419    1.3362 H   0  0  0  0  0  0
  1  2  1  0  0  0
  1 14  1  0  0  0
  1 15  1  0  0  0
  1 16  1  0  0  0
  2  3  1  0  0  0
  2  5  1  0  0  0
  2 17  1  0  0  0
  3  4  1  0  0  0
  3 18  1  0  0  0
  3 19  1  0  0  0
  4 20  1  0  0  0
  4 21  1  0  0  0
  4 30  1  0  0  0
  5 13  1  0  0  0
  5  6  1  0  0  0
  6  7  1  0  0  0
  6 22  1  0  0  0
  6 23  1  0  0  0
  7  8  1  0  0  0
  7 24  1  0  0  0
  7 25  1  0  0  0
  8 12  2  0  0  0
  8  9  1  0  0  0
  9 10  1  0  0  0
 10 11  2  0  0  0
 10 26  1  0  0  0
 11 12  1  0  0  0
 11 27  1  0  0  0
 12 13  1  0  0  0
 13 28  1  0  0  0
 13 29  1  0  0  0
M  CHG  1   4   1
M  END
> <s_m_entry_id>
1108

> <s_m_entry_name>
Spot_Xplore.std.217

> <s_m_Source_Path>
/Volumes/cluster/ddu/2448959/Work/2023/01_Fragment_screening_lib/1_Library_Construction/Work/SpotX/Ph4_Hypo_JC2

> <s_m_Source_File>
SpotX.maegz

> <i_m_Source_File_Index>
242

> <s_m_job_name>
ligprep_SpotXplore

> <i_lp_mmshare_version>
52144

> <s_epik_input>
W05IMl1bQ0gyXVtDQEBIXShbQ0gzXSlOKFtDSDJdW0NIMl0xKVtDSDJdYyhjMTIpW2NIXVtjSF1zMg==

> <s_epik_cmdline>
J2VwaWtfcHl0aG9uJywgJy1waHQnLCAnMS4wJywgJy1waCcsICc3LjAnLCAnLXRuJywgJzgnLCAnLW1hJywgJzIwMCcsICctaW1hZScsICc8aW5maWxlLm1hZT4nLCAnLW9tYWUnLCAnPG91dGZpbGUubWFlPic=

> <r_lp_tautomer_probability>
1

> <r_epik_Ionization_Penalty>
  0.0058

> <r_epik_Ionization_Penalty_Charging>
  0.0026

> <r_epik_Ionization_Penalty_Neutral>
  0.0032

> <r_epik_State_Penalty>
  0.0000

> <r_epik_Charging_Adjusted_Penalty>
0.00260420935150116

> <i_epik_Tot_Q>
1

> <i_epik_Tot_abs_Q>
1

> <i_f3d_flags>
0

> <s_lp_Force_Field>
OPLS_2005

> <r_lp_Energy>
23.141951

> <b_lp_Chiralities_Consistent>
1

> <s_lp_Variant>
mol_ID_217-1

> <s_m_subgroup_title>
ligprep_SpotXplore-out1

> <s_m_subgroupid>
ligprep_SpotXplore-out1

> <b_m_subgroup_collapsed>
0

$$$$
mol_ID_218
                    3D
 Schrodinger Suite 2020-4.
 26 27  0  0  1  0            999 V2000
   -0.0007    0.0993   -0.0756 N   0  0  0  0  0  0
    1.3924   -0.0024   -0.0440 C   0  0  0  0  0  0
    2.1144    1.2061   -0.0974 C   0  0  0  0  0  0
    3.5188    1.2084   -0.0803 C   0  0  0  0  0  0
    4.2397   -0.0008   -0.0108 C   0  0  0  0  0  0
    5.7173   -0.0022   -0.0024 C   0  0  0  0  0  0
    6.4471   -0.9904   -0.7037 C   0  0  0  0  0  0
    7.8555   -0.9909   -0.7016 C   0  0  0  0  0  0
    8.5591    0.0010    0.0052 C   0  0  0  0  0  0
    7.8497    0.9911    0.7085 C   0  0  0  0  0  0
    6.4411    0.9871    0.7034 C   0  0  0  0  0  0
    3.5099   -1.2092    0.0479 C   0  0  0  0  0  0
    2.0923   -1.2440    0.0344 C   0  0  0  0  0  0
    1.4037   -2.5944    0.1047 C   0  0  0  0  0  0
    2.1123   -3.6262    0.1243 O   0  0  0  0  0  0
    0.1554   -2.6712    0.1455 O   0  5  0  0  0  0
   -0.4677    0.9931   -0.0339 H   0  0  0  0  0  0
   -0.5747   -0.7257    0.0370 H   0  0  0  0  0  0
    1.5888    2.1482   -0.1572 H   0  0  0  0  0  0
    4.0408    2.1524   -0.1318 H   0  0  0  0  0  0
    5.9264   -1.7565   -1.2596 H   0  0  0  0  0  0
    8.3952   -1.7527   -1.2447 H   0  0  0  0  0  0
    9.6392    0.0021    0.0082 H   0  0  0  0  0  0
    8.3853    1.7540    1.2540 H   0  0  0  0  0  0
    5.9157    1.7520    1.2561 H   0  0  0  0  0  0
    4.0641   -2.1338    0.1138 H   0  0  0  0  0  0
  1  2  1  0  0  0
  1 17  1  0  0  0
  1 18  1  0  0  0
  2 13  1  0  0  0
  2  3  2  0  0  0
  3  4  1  0  0  0
  3 19  1  0  0  0
  4  5  2  0  0  0
  4 20  1  0  0  0
  5  6  1  0  0  0
  5 12  1  0  0  0
  6 11  1  0  0  0
  6  7  2  0  0  0
  7  8  1  0  0  0
  7 21  1  0  0  0
  8  9  2  0  0  0
  8 22  1  0  0  0
  9 10  1  0  0  0
  9 23  1  0  0  0
 10 11  2  0  0  0
 10 24  1  0  0  0
 11 25  1  0  0  0
 12 13  2  0  0  0
 12 26  1  0  0  0
 13 14  1  0  0  0
 14 15  2  0  0  0
 14 16  1  0  0  0
M  CHG  1  16  -1
M  END
> <s_m_entry_id>
1109

> <s_m_entry_name>
Spot_Xplore.std.218

> <s_m_Source_Path>
/Volumes/cluster/ddu/2448959/Work/2023/01_Fragment_screening_lib/1_Library_Construction/Work/SpotX/Ph4_Hypo_JC2

> <s_m_Source_File>
SpotX.maegz

> <i_m_Source_File_Index>
243

> <s_m_job_name>
ligprep_SpotXplore

> <i_lp_mmshare_version>
52144

> <s_epik_input>
W05IMl1jMVtjSF1bY0hdYyhbY0hdYzFDKD1PKVtPSF0pLWMyW2NIXVtjSF1bY0hdW2NIXVtjSF0y

> <s_epik_cmdline>
J2VwaWtfcHl0aG9uJywgJy1waHQnLCAnMS4wJywgJy1waCcsICc3LjAnLCAnLXRuJywgJzgnLCAnLW1hJywgJzIwMCcsICctaW1hZScsICc8aW5maWxlLm1hZT4nLCAnLW9tYWUnLCAnPG91dGZpbGUubWFlPic=

> <r_epik_Ionization_Penalty>
  0.0050

> <r_epik_Ionization_Penalty_Charging>
  0.0006

> <r_epik_Ionization_Penalty_Neutral>
  0.0044

> <r_epik_State_Penalty>
  0.0032

> <r_epik_Charging_Adjusted_Penalty>
0.00379269843968233

> <i_epik_Tot_Q>
-1

> <i_epik_Tot_abs_Q>
1

> <i_f3d_flags>
0

> <s_lp_Force_Field>
OPLS_2005

> <r_lp_Energy>
22.49685

> <b_lp_Chiralities_Consistent>
1

> <s_lp_Variant>
mol_ID_218-1

> <s_m_subgroup_title>
ligprep_SpotXplore-out1

> <s_m_subgroupid>
ligprep_SpotXplore-out1

> <b_m_subgroup_collapsed>
0

$$$$
mol_ID_219
                    3D
 Schrodinger Suite 2020-4.
 33 34  0  0  1  0            999 V2000
   -3.6286   -3.0734    0.7842 O   0  0  0  0  0  0
   -3.1205   -2.5430   -0.2042 C   0  0  0  0  0  0
   -3.3152   -3.1999   -1.5412 C   0  0  0  0  0  0
   -4.6220   -3.4542   -2.0115 C   0  0  0  0  0  0
   -4.8201   -4.0969   -3.2491 C   0  0  0  0  0  0
   -3.7127   -4.5026   -4.0181 C   0  0  0  0  0  0
   -2.4068   -4.2725   -3.5450 C   0  0  0  0  0  0
   -2.2080   -3.6301   -2.3074 C   0  0  0  0  0  0
   -2.3949   -1.3973   -0.1380 N   0  0  0  0  0  0
   -1.9248   -0.5970   -1.2784 C   0  0  0  0  0  0
   -0.3859   -0.5483   -1.2695 C   0  0  0  0  0  0
    0.1502    0.0091    0.0685 C   0  0  0  0  0  0
    1.6871   -0.0339    0.1472 C   0  0  0  0  0  0
    2.2630    0.8299   -0.8102 O   0  0  0  0  0  0
   -0.4891   -0.7418    1.2561 C   0  0  0  0  0  0
   -2.0236   -0.7772    1.1407 C   0  0  0  0  0  0
   -5.4790   -3.1516   -1.4270 H   0  0  0  0  0  0
   -5.8224   -4.2815   -3.6068 H   0  0  0  0  0  0
   -3.8650   -4.9970   -4.9664 H   0  0  0  0  0  0
   -1.5570   -4.5936   -4.1293 H   0  0  0  0  0  0
   -1.2017   -3.4731   -1.9488 H   0  0  0  0  0  0
   -2.2848   -0.9536   -2.2422 H   0  0  0  0  0  0
   -2.3239    0.4141   -1.1850 H   0  0  0  0  0  0
    0.0142   -1.5482   -1.4385 H   0  0  0  0  0  0
   -0.0371    0.0666   -2.0997 H   0  0  0  0  0  0
   -0.1610    1.0525    0.1434 H   0  0  0  0  0  0
    2.0254    0.2814    1.1347 H   0  0  0  0  0  0
    2.0572   -1.0473   -0.0111 H   0  0  0  0  0  0
    3.2035    0.7872   -0.7268 H   0  0  0  0  0  0
   -0.1070   -1.7629    1.2973 H   0  0  0  0  0  0
   -0.2035   -0.2672    2.1954 H   0  0  0  0  0  0
   -2.4285    0.2349    1.1837 H   0  0  0  0  0  0
   -2.4366   -1.3007    2.0038 H   0  0  0  0  0  0
  1  2  2  0  0  0
  2  3  1  0  0  0
  2  9  1  0  0  0
  3  8  1  0  0  0
  3  4  2  0  0  0
  4  5  1  0  0  0
  4 17  1  0  0  0
  5  6  2  0  0  0
  5 18  1  0  0  0
  6  7  1  0  0  0
  6 19  1  0  0  0
  7  8  2  0  0  0
  7 20  1  0  0  0
  8 21  1  0  0  0
  9 16  1  0  0  0
  9 10  1  0  0  0
 10 11  1  0  0  0
 10 22  1  0  0  0
 10 23  1  0  0  0
 11 12  1  0  0  0
 11 24  1  0  0  0
 11 25  1  0  0  0
 12 13  1  0  0  0
 12 15  1  0  0  0
 12 26  1  0  0  0
 13 14  1  0  0  0
 13 27  1  0  0  0
 13 28  1  0  0  0
 14 29  1  0  0  0
 15 16  1  0  0  0
 15 30  1  0  0  0
 15 31  1  0  0  0
 16 32  1  0  0  0
 16 33  1  0  0  0
M  END
> <s_m_entry_id>
1110

> <s_m_entry_name>
Spot_Xplore.std.219

> <s_m_Source_Path>
/Volumes/cluster/ddu/2448959/Work/2023/01_Fragment_screening_lib/1_Library_Construction/Work/SpotX/Ph4_Hypo_JC2

> <s_m_Source_File>
SpotX.maegz

> <i_m_Source_File_Index>
244

> <s_m_job_name>
ligprep_SpotXplore

> <i_lp_mmshare_version>
52144

> <s_epik_input>
W09IXVtDSDJdW0NIXShbQ0gyXVtDSDJdMSlbQ0gyXVtDSDJdTjFDKD1PKWMyW2NIXVtjSF1bY0hdW2NIXVtjSF0y

> <s_epik_cmdline>
J2VwaWtfcHl0aG9uJywgJy1waHQnLCAnMS4wJywgJy1waCcsICc3LjAnLCAnLXRuJywgJzgnLCAnLW1hJywgJzIwMCcsICctaW1hZScsICc8aW5maWxlLm1hZT4nLCAnLW9tYWUnLCAnPG91dGZpbGUubWFlPic=

> <r_lp_tautomer_probability>
1

> <r_epik_Ionization_Penalty>
  0.0000

> <r_epik_Ionization_Penalty_Charging>
  0.0000

> <r_epik_Ionization_Penalty_Neutral>
  0.0000

> <r_epik_State_Penalty>
  0.0000

> <r_epik_Charging_Adjusted_Penalty>
0

> <i_epik_Tot_Q>
0

> <i_epik_Tot_abs_Q>
0

> <i_f3d_flags>
0

> <s_lp_Force_Field>
OPLS_2005

> <r_lp_Energy>
34.341073

> <b_lp_Chiralities_Consistent>
1

> <s_lp_Variant>
mol_ID_219-1

> <s_m_subgroup_title>
ligprep_SpotXplore-out1

> <s_m_subgroupid>
ligprep_SpotXplore-out1

> <b_m_subgroup_collapsed>
0

$$$$
mol_ID_220
                    3D
 Schrodinger Suite 2020-4.
 31 32  0  0  1  0            999 V2000
   -0.7006    1.0474    0.0027 C   0  0  0  0  0  0
    0.0701   -0.1455    0.0059 O   0  0  0  0  0  0
    1.4467   -0.0369    0.0023 C   0  0  0  0  0  0
    2.1342    1.2039   -0.0004 C   0  0  0  0  0  0
    3.5411    1.2439   -0.0053 C   0  0  0  0  0  0
    4.2808    0.0488   -0.0069 C   0  0  0  0  0  0
    3.6118   -1.1879   -0.0036 C   0  0  0  0  0  0
    2.1988   -1.2369    0.0014 C   0  0  0  0  0  0
    1.5268   -2.4690   -0.0005 N   0  0  0  0  0  0
    1.6644   -3.2054   -1.2520 C   0  0  0  0  0  0
    0.7526   -4.4455   -1.2565 C   0  0  0  0  0  0
    0.9761   -5.2689   -0.0476 N   0  3  0  0  0  0
    0.8244   -4.5006    1.2078 C   0  0  0  0  0  0
    1.7379   -3.2618    1.2059 C   0  0  0  0  0  0
   -1.7598    0.7906    0.0041 H   0  0  0  0  0  0
   -0.5079    1.6447   -0.8895 H   0  0  0  0  0  0
   -0.5070    1.6505    0.8909 H   0  0  0  0  0  0
    1.6044    2.1441    0.0007 H   0  0  0  0  0  0
    4.0530    2.1950   -0.0083 H   0  0  0  0  0  0
    5.3604    0.0802   -0.0116 H   0  0  0  0  0  0
    4.1911   -2.0996   -0.0072 H   0  0  0  0  0  0
    1.4148   -2.5559   -2.0921 H   0  0  0  0  0  0
    2.7037   -3.5107   -1.3806 H   0  0  0  0  0  0
   -0.2941   -4.1394   -1.2859 H   0  0  0  0  0  0
    0.9345   -5.0495   -2.1455 H   0  0  0  0  0  0
    0.3250   -6.0410   -0.0460 H   0  0  0  0  0  0
   -0.2182   -4.1961    1.3109 H   0  0  0  0  0  0
    1.0552   -5.1440    2.0569 H   0  0  0  0  0  0
    2.7816   -3.5744    1.2588 H   0  0  0  0  0  0
    1.5409   -2.6511    2.0879 H   0  0  0  0  0  0
    1.9168   -5.6346   -0.0831 H   0  0  0  0  0  0
  1  2  1  0  0  0
  1 15  1  0  0  0
  1 16  1  0  0  0
  1 17  1  0  0  0
  2  3  1  0  0  0
  3  8  1  0  0  0
  3  4  2  0  0  0
  4  5  1  0  0  0
  4 18  1  0  0  0
  5  6  2  0  0  0
  5 19  1  0  0  0
  6  7  1  0  0  0
  6 20  1  0  0  0
  7  8  2  0  0  0
  7 21  1  0  0  0
  8  9  1  0  0  0
  9 14  1  0  0  0
  9 10  1  0  0  0
 10 11  1  0  0  0
 10 22  1  0  0  0
 10 23  1  0  0  0
 11 12  1  0  0  0
 11 24  1  0  0  0
 11 25  1  0  0  0
 12 13  1  0  0  0
 12 26  1  0  0  0
 12 31  1  0  0  0
 13 14  1  0  0  0
 13 27  1  0  0  0
 13 28  1  0  0  0
 14 29  1  0  0  0
 14 30  1  0  0  0
M  CHG  1  12   1
M  END
> <s_m_entry_id>
1111

> <s_m_entry_name>
Spot_Xplore.std.220

> <s_m_Source_Path>
/Volumes/cluster/ddu/2448959/Work/2023/01_Fragment_screening_lib/1_Library_Construction/Work/SpotX/Ph4_Hypo_JC2

> <s_m_Source_File>
SpotX.maegz

> <i_m_Source_File_Index>
245

> <s_m_job_name>
ligprep_SpotXplore

> <i_lp_mmshare_version>
52144

> <s_epik_input>
W0NIM11PYzFbY0hdW2NIXVtjSF1bY0hdYzFOMltDSDJdW0NIMl1bTkhdW0NIMl1bQ0gyXTI=

> <s_epik_cmdline>
J2VwaWtfcHl0aG9uJywgJy1waHQnLCAnMS4wJywgJy1waCcsICc3LjAnLCAnLXRuJywgJzgnLCAnLW1hJywgJzIwMCcsICctaW1hZScsICc8aW5maWxlLm1hZT4nLCAnLW9tYWUnLCAnPG91dGZpbGUubWFlPic=

> <r_lp_tautomer_probability>
1

> <r_epik_Ionization_Penalty>
  0.0088

> <r_epik_Ionization_Penalty_Charging>
  0.0086

> <r_epik_Ionization_Penalty_Neutral>
  0.0002

> <r_epik_State_Penalty>
  0.0065

> <r_epik_Charging_Adjusted_Penalty>
0.0150377511596577

> <i_epik_Tot_Q>
1

> <i_epik_Tot_abs_Q>
1

> <i_f3d_flags>
0

> <s_lp_Force_Field>
OPLS_2005

> <r_lp_Energy>
33.807414

> <b_lp_Chiralities_Consistent>
1

> <s_lp_Variant>
mol_ID_220-1

> <s_m_subgroup_title>
ligprep_SpotXplore-out1

> <s_m_subgroupid>
ligprep_SpotXplore-out1

> <b_m_subgroup_collapsed>
0

$$$$
mol_ID_221
                    3D
 Schrodinger Suite 2020-4.
 14 14  0  0  1  0            999 V2000
   -0.0047   -0.0260    0.0000 C   0  0  0  0  0  0
    1.4511    0.0338    0.0000 N   0  0  0  0  0  0
    2.2472   -1.1818   -0.0000 C   0  0  0  0  0  0
    3.6334   -0.5748   -0.0000 C   0  0  0  0  0  0
    4.6813   -1.2172   -0.0000 O   0  0  0  0  0  0
    3.5013    0.7496    0.0000 N   0  0  0  0  0  0
    2.2209    1.1376    0.0000 C   0  0  0  0  0  0
    1.8293    2.3033    0.0000 O   0  0  0  0  0  0
   -0.4577    0.9664   -0.0000 H   0  0  0  0  0  0
   -0.3584   -0.5582    0.8834 H   0  0  0  0  0  0
   -0.3584   -0.5582   -0.8834 H   0  0  0  0  0  0
    2.0725   -1.7807    0.8945 H   0  0  0  0  0  0
    2.0725   -1.7807   -0.8945 H   0  0  0  0  0  0
    4.2810    1.3909    0.0000 H   0  0  0  0  0  0
  1  2  1  0  0  0
  1  9  1  0  0  0
  1 10  1  0  0  0
  1 11  1  0  0  0
  2  7  1  0  0  0
  2  3  1  0  0  0
  3  4  1  0  0  0
  3 12  1  0  0  0
  3 13  1  0  0  0
  4  5  2  0  0  0
  4  6  1  0  0  0
  6  7  1  0  0  0
  6 14  1  0  0  0
  7  8  2  0  0  0
M  END
> <s_m_entry_id>
1112

> <s_m_entry_name>
Spot_Xplore.std.221

> <s_m_Source_Path>
/Volumes/cluster/ddu/2448959/Work/2023/01_Fragment_screening_lib/1_Library_Construction/Work/SpotX/Ph4_Hypo_JC2

> <s_m_Source_File>
SpotX.maegz

> <i_m_Source_File_Index>
246

> <s_m_job_name>
ligprep_SpotXplore

> <i_lp_mmshare_version>
52144

> <s_epik_input>
W0NIM11OMVtDSDJdQyg9TylbTkhdQzE9Tw==

> <s_epik_cmdline>
J2VwaWtfcHl0aG9uJywgJy1waHQnLCAnMS4wJywgJy1waCcsICc3LjAnLCAnLXRuJywgJzgnLCAnLW1hJywgJzIwMCcsICctaW1hZScsICc8aW5maWxlLm1hZT4nLCAnLW9tYWUnLCAnPG91dGZpbGUubWFlPic=

> <r_lp_tautomer_probability>
0.999999999781575

> <r_epik_Ionization_Penalty>
  0.0059

> <r_epik_Ionization_Penalty_Charging>
  0.0000

> <r_epik_Ionization_Penalty_Neutral>
  0.0059

> <r_epik_State_Penalty>
  0.0043

> <r_epik_Charging_Adjusted_Penalty>
0.00433438749101317

> <i_epik_Tot_Q>
0

> <i_epik_Tot_abs_Q>
0

> <i_f3d_flags>
0

> <s_lp_Force_Field>
OPLS_2005

> <r_lp_Energy>
15.48091

> <b_lp_Chiralities_Consistent>
1

> <s_lp_Variant>
mol_ID_221-1

> <s_m_subgroup_title>
ligprep_SpotXplore-out1

> <s_m_subgroupid>
ligprep_SpotXplore-out1

> <b_m_subgroup_collapsed>
0

$$$$
mol_ID_222
                    3D
 Schrodinger Suite 2020-4.
 16 17  0  0  1  0            999 V2000
   -2.6481    1.2785    1.0785 O   0  0  0  0  0  0
   -1.6116    0.8079    0.6157 C   0  0  0  0  0  0
   -0.6661    0.0169    1.2659 N   0  0  0  0  0  0
    0.3850   -0.3478    0.4502 C   0  0  0  0  0  0
    0.3365    0.0943   -0.7774 C   0  0  0  0  0  0
   -1.0763    1.0598   -1.1151 S   0  0  0  0  0  0
    1.4631   -0.3812   -1.6394 C   0  0  0  0  0  0
    2.2565   -1.2874   -0.6398 C   0  0  0  0  0  0
    1.5508   -1.2332    0.7553 C   0  0  0  0  0  0
   -0.7672   -0.2653    2.2301 H   0  0  0  0  0  0
    1.0877   -0.9407   -2.4965 H   0  0  0  0  0  0
    2.0580    0.4619   -1.9914 H   0  0  0  0  0  0
    2.2838   -2.3141   -1.0061 H   0  0  0  0  0  0
    3.2916   -0.9542   -0.5591 H   0  0  0  0  0  0
    2.1865   -0.7824    1.5179 H   0  0  0  0  0  0
    1.2204   -2.2161    1.0922 H   0  0  0  0  0  0
  1  2  2  0  0  0
  2  6  1  0  0  0
  2  3  1  0  0  0
  3  4  1  0  0  0
  3 10  1  0  0  0
  4  9  1  0  0  0
  4  5  2  0  0  0
  5  6  1  0  0  0
  5  7  1  0  0  0
  7  8  1  0  0  0
  7 11  1  0  0  0
  7 12  1  0  0  0
  8  9  1  0  0  0
  8 13  1  0  0  0
  8 14  1  0  0  0
  9 15  1  0  0  0
  9 16  1  0  0  0
M  END
> <s_m_entry_id>
1113

> <s_m_entry_name>
Spot_Xplore.std.222

> <s_m_Source_Path>
/Volumes/cluster/ddu/2448959/Work/2023/01_Fragment_screening_lib/1_Library_Construction/Work/SpotX/Ph4_Hypo_JC2

> <s_m_Source_File>
SpotX.maegz

> <i_m_Source_File_Index>
247

> <s_m_job_name>
ligprep_SpotXplore

> <i_lp_mmshare_version>
52144

> <s_epik_input>
Tz1jKFtuSF0xKXNjKGMxMilbQ0gyXVtDSDJdW0NIMl0y

> <s_epik_cmdline>
J2VwaWtfcHl0aG9uJywgJy1waHQnLCAnMS4wJywgJy1waCcsICc3LjAnLCAnLXRuJywgJzgnLCAnLW1hJywgJzIwMCcsICctaW1hZScsICc8aW5maWxlLm1hZT4nLCAnLW9tYWUnLCAnPG91dGZpbGUubWFlPic=

> <r_lp_tautomer_probability>
1

> <r_epik_Ionization_Penalty>
  0.0000

> <r_epik_Ionization_Penalty_Charging>
  0.0000

> <r_epik_Ionization_Penalty_Neutral>
  0.0000

> <r_epik_State_Penalty>
  0.0000

> <r_epik_Charging_Adjusted_Penalty>
4.8352730019451e-05

> <i_epik_Tot_Q>
0

> <i_epik_Tot_abs_Q>
0

> <i_f3d_flags>
0

> <s_lp_Force_Field>
OPLS_2005

> <r_lp_Energy>
31.033251

> <b_lp_Chiralities_Consistent>
1

> <s_lp_Variant>
mol_ID_222-1

> <s_m_subgroup_title>
ligprep_SpotXplore-out1

> <s_m_subgroupid>
ligprep_SpotXplore-out1

> <b_m_subgroup_collapsed>
0

$$$$
mol_ID_223
                    3D
 Schrodinger Suite 2020-4.
 30 31  0  0  1  0            999 V2000
   -0.1816    0.8722    0.7902 O   0  0  0  0  0  0
    0.2660   -0.1719    0.3145 C   0  0  0  0  0  0
    1.7162   -0.2176   -0.1899 C   0  0  0  0  0  0
    2.0745    1.0811   -0.8077 N   0  3  0  0  0  0
    3.5266    1.3041   -0.9308 C   0  0  0  0  0  0
    3.6928    2.3948   -1.9942 C   0  0  0  0  0  0
    2.3634    2.4322   -2.7582 C   0  0  0  0  0  0
    1.5171    1.3086   -2.1559 C   0  0  0  0  0  0
   -0.5105   -1.4388    0.2325 C   0  0  0  0  0  0
   -0.4865   -2.1807   -0.9722 C   0  0  0  0  0  0
   -1.2415   -3.3611   -1.1049 C   0  0  0  0  0  0
   -2.0381   -3.8099   -0.0371 C   0  0  0  0  0  0
   -2.0809   -3.0746    1.1612 C   0  0  0  0  0  0
   -1.3286   -1.8908    1.3029 C   0  0  0  0  0  0
   -1.4173   -1.0535    2.8159 Cl  0  0  0  0  0  0
    2.3595   -0.3900    0.6734 H   0  0  0  0  0  0
    1.8923   -1.0347   -0.8883 H   0  0  0  0  0  0
    3.9726    1.5796    0.0254 H   0  0  0  0  0  0
    4.0061    0.3854   -1.2734 H   0  0  0  0  0  0
    3.8797    3.3614   -1.5248 H   0  0  0  0  0  0
    4.5361    2.1807   -2.6518 H   0  0  0  0  0  0
    1.8752    3.3946   -2.5989 H   0  0  0  0  0  0
    2.4982    2.3058   -3.8329 H   0  0  0  0  0  0
    1.6308    0.4030   -2.7545 H   0  0  0  0  0  0
    0.4562    1.5597   -2.1234 H   0  0  0  0  0  0
    0.0994   -1.8471   -1.8163 H   0  0  0  0  0  0
   -1.2144   -3.9189   -2.0295 H   0  0  0  0  0  0
   -2.6188   -4.7150   -0.1375 H   0  0  0  0  0  0
   -2.6950   -3.4240    1.9786 H   0  0  0  0  0  0
    1.7191    1.8150   -0.2109 H   0  0  0  0  0  0
  1  2  2  0  0  0
  2  3  1  0  0  0
  2  9  1  0  0  0
  3  4  1  0  0  0
  3 16  1  0  0  0
  3 17  1  0  0  0
  4  8  1  0  0  0
  4  5  1  0  0  0
  4 30  1  0  0  0
  5  6  1  0  0  0
  5 18  1  0  0  0
  5 19  1  0  0  0
  6  7  1  0  0  0
  6 20  1  0  0  0
  6 21  1  0  0  0
  7  8  1  0  0  0
  7 22  1  0  0  0
  7 23  1  0  0  0
  8 24  1  0  0  0
  8 25  1  0  0  0
  9 14  1  0  0  0
  9 10  2  0  0  0
 10 11  1  0  0  0
 10 26  1  0  0  0
 11 12  2  0  0  0
 11 27  1  0  0  0
 12 13  1  0  0  0
 12 28  1  0  0  0
 13 14  2  0  0  0
 13 29  1  0  0  0
 14 15  1  0  0  0
M  CHG  1   4   1
M  END
> <s_m_entry_id>
1114

> <s_m_entry_name>
Spot_Xplore.std.223

> <s_m_Source_Path>
/Volumes/cluster/ddu/2448959/Work/2023/01_Fragment_screening_lib/1_Library_Construction/Work/SpotX/Ph4_Hypo_JC2

> <s_m_Source_File>
SpotX.maegz

> <i_m_Source_File_Index>
248

> <s_m_job_name>
ligprep_SpotXplore

> <i_lp_mmshare_version>
52144

> <s_epik_input>
W0NIMl0xW0NIMl1bQ0gyXVtDSDJdTjFbQ0gyXUMoPU8pYzJbY0hdW2NIXVtjSF1bY0hdYzJDbA==

> <s_epik_cmdline>
J2VwaWtfcHl0aG9uJywgJy1waHQnLCAnMS4wJywgJy1waCcsICc3LjAnLCAnLXRuJywgJzgnLCAnLW1hJywgJzIwMCcsICctaW1hZScsICc8aW5maWxlLm1hZT4nLCAnLW9tYWUnLCAnPG91dGZpbGUubWFlPic=

> <r_epik_Ionization_Penalty>
  0.1877

> <r_epik_Ionization_Penalty_Charging>
  0.1877

> <r_epik_Ionization_Penalty_Neutral>
  0.0000

> <r_epik_State_Penalty>
  0.1773

> <r_epik_Charging_Adjusted_Penalty>
0.364941758723287

> <i_epik_Tot_Q>
1

> <i_epik_Tot_abs_Q>
1

> <i_f3d_flags>
0

> <s_lp_Force_Field>
OPLS_2005

> <r_lp_Energy>
40.090323

> <b_lp_Chiralities_Consistent>
1

> <s_lp_Variant>
mol_ID_223-1

> <s_m_subgroup_title>
ligprep_SpotXplore-out1

> <s_m_subgroupid>
ligprep_SpotXplore-out1

> <b_m_subgroup_collapsed>
0

$$$$
mol_ID_223
                    3D
 Schrodinger Suite 2020-4.
 29 30  0  0  1  0            999 V2000
   -1.0641    1.2118    0.1825 O   0  0  0  0  0  0
   -0.2938    0.2589    0.0734 C   0  0  0  0  0  0
    1.2162    0.5246    0.1610 C   0  0  0  0  0  0
    1.9896    0.1111   -1.0091 N   0  0  0  0  0  0
    1.5767    0.7366   -2.2623 C   0  0  0  0  0  0
    2.7527    0.4715   -3.2059 C   0  0  0  0  0  0
    3.9437    0.2119   -2.2855 C   0  0  0  0  0  0
    3.3995    0.4477   -0.8771 C   0  0  0  0  0  0
   -0.7330   -1.1525   -0.1474 C   0  0  0  0  0  0
    0.0034   -2.2045    0.4496 C   0  0  0  0  0  0
   -0.3929   -3.5456    0.2919 C   0  0  0  0  0  0
   -1.5383   -3.8558   -0.4605 C   0  0  0  0  0  0
   -2.2842   -2.8223   -1.0542 C   0  0  0  0  0  0
   -1.8941   -1.4759   -0.9033 C   0  0  0  0  0  0
   -2.8530   -0.2747   -1.7012 Cl  0  0  0  0  0  0
    1.3604    1.5949    0.3147 H   0  0  0  0  0  0
    1.6158    0.0363    1.0496 H   0  0  0  0  0  0
    0.6409    0.3265   -2.6440 H   0  0  0  0  0  0
    1.4469    1.8113   -2.1202 H   0  0  0  0  0  0
    2.5606   -0.4031   -3.8287 H   0  0  0  0  0  0
    2.9248    1.3202   -3.8688 H   0  0  0  0  0  0
    4.2780   -0.8209   -2.3926 H   0  0  0  0  0  0
    4.7912    0.8607   -2.5080 H   0  0  0  0  0  0
    3.5177    1.4971   -0.6001 H   0  0  0  0  0  0
    3.8983   -0.1646   -0.1251 H   0  0  0  0  0  0
    0.8806   -2.0008    1.0450 H   0  0  0  0  0  0
    0.1810   -4.3360    0.7525 H   0  0  0  0  0  0
   -1.8446   -4.8842   -0.5826 H   0  0  0  0  0  0
   -3.1617   -3.0660   -1.6351 H   0  0  0  0  0  0
  1  2  2  0  0  0
  2  3  1  0  0  0
  2  9  1  0  0  0
  3  4  1  0  0  0
  3 16  1  0  0  0
  3 17  1  0  0  0
  4  8  1  0  0  0
  4  5  1  0  0  0
  5  6  1  0  0  0
  5 18  1  0  0  0
  5 19  1  0  0  0
  6  7  1  0  0  0
  6 20  1  0  0  0
  6 21  1  0  0  0
  7  8  1  0  0  0
  7 22  1  0  0  0
  7 23  1  0  0  0
  8 24  1  0  0  0
  8 25  1  0  0  0
  9 14  1  0  0  0
  9 10  2  0  0  0
 10 11  1  0  0  0
 10 26  1  0  0  0
 11 12  2  0  0  0
 11 27  1  0  0  0
 12 13  1  0  0  0
 12 28  1  0  0  0
 13 14  2  0  0  0
 13 29  1  0  0  0
 14 15  1  0  0  0
M  END
> <s_m_entry_id>
1115

> <s_m_entry_name>
Spot_Xplore.std.223

> <s_m_Source_Path>
/Volumes/cluster/ddu/2448959/Work/2023/01_Fragment_screening_lib/1_Library_Construction/Work/SpotX/Ph4_Hypo_JC2

> <s_m_Source_File>
SpotX.maegz

> <i_m_Source_File_Index>
249

> <s_m_job_name>
ligprep_SpotXplore

> <i_lp_mmshare_version>
52144

> <s_epik_input>
W0NIMl0xW0NIMl1bQ0gyXVtDSDJdTjFbQ0gyXUMoPU8pYzJbY0hdW2NIXVtjSF1bY0hdYzJDbA==

> <s_epik_cmdline>
J2VwaWtfcHl0aG9uJywgJy1waHQnLCAnMS4wJywgJy1waCcsICc3LjAnLCAnLXRuJywgJzgnLCAnLW1hJywgJzIwMCcsICctaW1hZScsICc8aW5maWxlLm1hZT4nLCAnLW9tYWUnLCAnPG91dGZpbGUubWFlPic=

> <r_lp_tautomer_probability>
0.99990000499975

> <r_epik_Ionization_Penalty>
  0.7725

> <r_epik_Ionization_Penalty_Charging>
  0.0000

> <r_epik_Ionization_Penalty_Neutral>
  0.7725

> <r_epik_State_Penalty>
  0.8013

> <r_epik_Charging_Adjusted_Penalty>
0.801343755846396

> <i_epik_Tot_Q>
0

> <i_epik_Tot_abs_Q>
0

> <i_f3d_flags>
0

> <s_lp_Force_Field>
OPLS_2005

> <r_lp_Energy>
37.293694

> <b_lp_Chiralities_Consistent>
1

> <s_lp_Variant>
mol_ID_223-2

> <s_m_subgroup_title>
ligprep_SpotXplore-out1

> <s_m_subgroupid>
ligprep_SpotXplore-out1

> <b_m_subgroup_collapsed>
0

$$$$
mol_ID_224
                    3D
 Schrodinger Suite 2020-4.
 21 22  0  0  1  0            999 V2000
   -3.4311    1.2130   -0.0002 O   0  0  0  0  0  0
   -2.3699    0.5921   -0.0001 C   0  0  0  0  0  0
   -2.3837   -0.9450   -0.0000 C   0  0  0  0  0  0
   -0.6768   -1.4752    0.0001 S   0  0  0  0  0  0
   -0.2037    0.2430   -0.0000 C   0  0  0  0  0  0
    1.1738    0.4145    0.0001 N   0  0  0  0  0  0
    2.0450    1.5142    0.0002 C   0  0  0  0  0  0
    1.5973    2.8569    0.0004 C   0  0  0  0  0  0
    2.5251    3.9169    0.0005 C   0  0  0  0  0  0
    3.9063    3.6472    0.0004 C   0  0  0  0  0  0
    4.7969    4.6671    0.0005 F   0  0  0  0  0  0
    4.3600    2.3152    0.0002 C   0  0  0  0  0  0
    3.4323    1.2555    0.0001 C   0  0  0  0  0  0
   -1.1053    1.1631   -0.0001 N   0  0  0  0  0  0
   -2.8953   -1.3214    0.8861 H   0  0  0  0  0  0
   -2.8953   -1.3216   -0.8861 H   0  0  0  0  0  0
    1.7129   -0.4395    0.0001 H   0  0  0  0  0  0
    0.5465    3.0993    0.0005 H   0  0  0  0  0  0
    2.1750    4.9386    0.0006 H   0  0  0  0  0  0
    5.4195    2.1052    0.0002 H   0  0  0  0  0  0
    3.7934    0.2372   -0.0000 H   0  0  0  0  0  0
  1  2  2  0  0  0
  2 14  1  0  0  0
  2  3  1  0  0  0
  3  4  1  0  0  0
  3 15  1  0  0  0
  3 16  1  0  0  0
  4  5  1  0  0  0
  5  6  1  0  0  0
  5 14  2  0  0  0
  6  7  1  0  0  0
  6 17  1  0  0  0
  7 13  1  0  0  0
  7  8  2  0  0  0
  8  9  1  0  0  0
  8 18  1  0  0  0
  9 10  2  0  0  0
  9 19  1  0  0  0
 10 11  1  0  0  0
 10 12  1  0  0  0
 12 13  2  0  0  0
 12 20  1  0  0  0
 13 21  1  0  0  0
M  END
> <s_m_entry_id>
1116

> <s_m_entry_name>
Spot_Xplore.std.224

> <s_m_Source_Path>
/Volumes/cluster/ddu/2448959/Work/2023/01_Fragment_screening_lib/1_Library_Construction/Work/SpotX/Ph4_Hypo_JC2

> <s_m_Source_File>
SpotX.maegz

> <i_m_Source_File_Index>
250

> <s_m_job_name>
ligprep_SpotXplore

> <i_lp_mmshare_version>
52144

> <s_epik_input>
Tz1DMVtDSDJdU0MoPU4xKVtOSF1jMltjSF1bY0hdYyhGKVtjSF1bY0hdMg==

> <s_epik_cmdline>
J2VwaWtfcHl0aG9uJywgJy1waHQnLCAnMS4wJywgJy1waCcsICc3LjAnLCAnLXRuJywgJzgnLCAnLW1hJywgJzIwMCcsICctaW1hZScsICc8aW5maWxlLm1hZT4nLCAnLW9tYWUnLCAnPG91dGZpbGUubWFlPic=

> <r_lp_tautomer_probability>
0.963993571743684

> <r_epik_Ionization_Penalty>
  0.4463

> <r_epik_Ionization_Penalty_Charging>
  0.0000

> <r_epik_Ionization_Penalty_Neutral>
  0.4463

> <r_epik_State_Penalty>
  0.1460

> <r_epik_Charging_Adjusted_Penalty>
0.145983173490193

> <i_epik_Tot_Q>
0

> <i_epik_Tot_abs_Q>
0

> <i_f3d_flags>
0

> <s_lp_Force_Field>
OPLS_2005

> <r_lp_Energy>
8.916328

> <b_lp_Chiralities_Consistent>
1

> <s_lp_Variant>
mol_ID_224-1

> <s_epik_Chemistry_Notes>
This compound has an imine and may undergo hydrolysis.

> <s_m_subgroup_title>
ligprep_SpotXplore-out1

> <s_m_subgroupid>
ligprep_SpotXplore-out1

> <b_m_subgroup_collapsed>
0

$$$$
mol_ID_224
                    3D
 Schrodinger Suite 2020-4.
 22 23  0  0  1  0            999 V2000
   -2.6775    2.2829    0.0000 O   0  0  0  0  0  0
   -2.0568    1.2227    0.0001 C   0  0  0  0  0  0
   -2.6950   -0.1609    0.0002 C   0  0  0  0  0  0
   -1.3271   -1.3285    0.0005 S   0  0  0  0  0  0
   -0.0690   -0.0509    0.0000 C   0  0  0  0  0  0
    1.2717   -0.2554   -0.0002 N   0  0  0  0  0  0
    2.0603   -1.4763   -0.0002 C   0  0  0  0  0  0
    1.5588   -2.8008   -0.0005 C   0  0  0  0  0  0
    2.4502   -3.8923   -0.0005 C   0  0  0  0  0  0
    3.8405   -3.6771   -0.0004 C   0  0  0  0  0  0
    4.6905   -4.7308   -0.0005 F   0  0  0  0  0  0
    4.3444   -2.3641   -0.0001 C   0  0  0  0  0  0
    3.4570   -1.2711   -0.0000 C   0  0  0  0  0  0
   -0.6284    1.1711   -0.0001 N   0  3  0  0  0  0
   -3.3136   -0.2985    0.8873 H   0  0  0  0  0  0
   -3.3133   -0.2987   -0.8871 H   0  0  0  0  0  0
    1.7944    0.6087   -0.0003 H   0  0  0  0  0  0
    0.5149   -3.0447   -0.0007 H   0  0  0  0  0  0
    2.0643   -4.9011   -0.0007 H   0  0  0  0  0  0
    5.4113   -2.1952   -0.0001 H   0  0  0  0  0  0
    3.8600   -0.2686    0.0001 H   0  0  0  0  0  0
   -0.0234    1.9796   -0.0002 H   0  0  0  0  0  0
  1  2  2  0  0  0
  2 14  1  0  0  0
  2  3  1  0  0  0
  3  4  1  0  0  0
  3 15  1  0  0  0
  3 16  1  0  0  0
  4  5  1  0  0  0
  5  6  1  0  0  0
  5 14  2  0  0  0
  6  7  1  0  0  0
  6 17  1  0  0  0
  7 13  1  0  0  0
  7  8  2  0  0  0
  8  9  1  0  0  0
  8 18  1  0  0  0
  9 10  2  0  0  0
  9 19  1  0  0  0
 10 11  1  0  0  0
 10 12  1  0  0  0
 12 13  2  0  0  0
 12 20  1  0  0  0
 13 21  1  0  0  0
 14 22  1  0  0  0
M  CHG  1  14   1
M  END
> <s_m_entry_id>
1117

> <s_m_entry_name>
Spot_Xplore.std.224

> <s_m_Source_Path>
/Volumes/cluster/ddu/2448959/Work/2023/01_Fragment_screening_lib/1_Library_Construction/Work/SpotX/Ph4_Hypo_JC2

> <s_m_Source_File>
SpotX.maegz

> <i_m_Source_File_Index>
251

> <s_m_job_name>
ligprep_SpotXplore

> <i_lp_mmshare_version>
52144

> <s_epik_input>
Tz1DMVtDSDJdU0MoPU4xKVtOSF1jMltjSF1bY0hdYyhGKVtjSF1bY0hdMg==

> <s_epik_cmdline>
J2VwaWtfcHl0aG9uJywgJy1waHQnLCAnMS4wJywgJy1waCcsICc3LjAnLCAnLXRuJywgJzgnLCAnLW1hJywgJzIwMCcsICctaW1hZScsICc8aW5maWxlLm1hZT4nLCAnLW9tYWUnLCAnPG91dGZpbGUubWFlPic=

> <r_epik_Ionization_Penalty>
  1.0775

> <r_epik_Ionization_Penalty_Charging>
  1.0775

> <r_epik_Ionization_Penalty_Neutral>
  0.0000

> <r_epik_State_Penalty>
  1.1076

> <r_epik_Charging_Adjusted_Penalty>
2.18505014036699

> <i_epik_Tot_Q>
1

> <i_epik_Tot_abs_Q>
1

> <i_f3d_flags>
0

> <s_lp_Force_Field>
OPLS_2005

> <r_lp_Energy>
25.144926

> <b_lp_Chiralities_Consistent>
1

> <s_lp_Variant>
mol_ID_224-2

> <s_epik_Chemistry_Notes>
This compound has an imine and may undergo hydrolysis.

> <s_m_subgroup_title>
ligprep_SpotXplore-out1

> <s_m_subgroupid>
ligprep_SpotXplore-out1

> <b_m_subgroup_collapsed>
0

$$$$
mol_ID_225
                    3D
 Schrodinger Suite 2020-4.
 32 33  0  0  1  0            999 V2000
   -0.6957    1.2249   -0.0000 C   0  0  0  0  0  0
    0.0278    0.0029   -0.0000 O   0  0  0  0  0  0
    1.4076    0.0503   -0.0000 C   0  0  0  0  0  0
    2.1382    1.2671    0.0000 C   0  0  0  0  0  0
    3.5451    1.2629    0.0000 C   0  0  0  0  0  0
    4.2445    0.0451    0.0000 C   0  0  0  0  0  0
    3.5341   -1.1677   -0.0000 C   0  0  0  0  0  0
    2.1203   -1.1778   -0.0000 C   0  0  0  0  0  0
    1.3845   -2.5185   -0.0000 C   0  0  0  0  0  0
    1.6890   -3.3502   -1.2622 C   0  0  0  0  0  0
    0.9378   -4.6922   -1.2329 C   0  0  0  0  0  0
    1.2563   -5.4453    0.0000 N   0  3  0  0  0  0
    0.9379   -4.6922    1.2328 C   0  0  0  0  0  0
    1.6890   -3.3502    1.2622 C   0  0  0  0  0  0
   -1.7639    1.0081   -0.0000 H   0  0  0  0  0  0
   -0.4803    1.8168   -0.8905 H   0  0  0  0  0  0
   -0.4803    1.8168    0.8905 H   0  0  0  0  0  0
    1.6419    2.2254    0.0000 H   0  0  0  0  0  0
    4.0880    2.1966    0.0000 H   0  0  0  0  0  0
    5.3246    0.0408    0.0000 H   0  0  0  0  0  0
    4.0867   -2.0954   -0.0000 H   0  0  0  0  0  0
    0.3105   -2.3353   -0.0000 H   0  0  0  0  0  0
    1.4050   -2.7900   -2.1541 H   0  0  0  0  0  0
    2.7597   -3.5410   -1.3444 H   0  0  0  0  0  0
   -0.1391   -4.5260   -1.2844 H   0  0  0  0  0  0
    1.2085   -5.2959   -2.0992 H   0  0  0  0  0  0
    0.7345   -6.3101   -0.0000 H   0  0  0  0  0  0
   -0.1391   -4.5260    1.2844 H   0  0  0  0  0  0
    1.2085   -5.2959    2.0992 H   0  0  0  0  0  0
    2.7597   -3.5410    1.3444 H   0  0  0  0  0  0
    1.4050   -2.7901    2.1541 H   0  0  0  0  0  0
    2.2432   -5.6606   -0.0000 H   0  0  0  0  0  0
  1  2  1  0  0  0
  1 15  1  0  0  0
  1 16  1  0  0  0
  1 17  1  0  0  0
  2  3  1  0  0  0
  3  8  1  0  0  0
  3  4  2  0  0  0
  4  5  1  0  0  0
  4 18  1  0  0  0
  5  6  2  0  0  0
  5 19  1  0  0  0
  6  7  1  0  0  0
  6 20  1  0  0  0
  7  8  2  0  0  0
  7 21  1  0  0  0
  8  9  1  0  0  0
  9 14  1  0  0  0
  9 10  1  0  0  0
  9 22  1  0  0  0
 10 11  1  0  0  0
 10 23  1  0  0  0
 10 24  1  0  0  0
 11 12  1  0  0  0
 11 25  1  0  0  0
 11 26  1  0  0  0
 12 13  1  0  0  0
 12 27  1  0  0  0
 12 32  1  0  0  0
 13 14  1  0  0  0
 13 28  1  0  0  0
 13 29  1  0  0  0
 14 30  1  0  0  0
 14 31  1  0  0  0
M  CHG  1  12   1
M  END
> <s_m_entry_id>
1118

> <s_m_entry_name>
Spot_Xplore.std.225

> <s_m_Source_Path>
/Volumes/cluster/ddu/2448959/Work/2023/01_Fragment_screening_lib/1_Library_Construction/Work/SpotX/Ph4_Hypo_JC2

> <s_m_Source_File>
SpotX.maegz

> <i_m_Source_File_Index>
252

> <s_m_job_name>
ligprep_SpotXplore

> <i_lp_mmshare_version>
52144

> <s_epik_input>
W0NIM11PYzFbY0hdW2NIXVtjSF1bY0hdYzFbQ0hdMltDSDJdW0NIMl1bTkhdW0NIMl1bQ0gyXTI=

> <s_epik_cmdline>
J2VwaWtfcHl0aG9uJywgJy1waHQnLCAnMS4wJywgJy1waCcsICc3LjAnLCAnLXRuJywgJzgnLCAnLW1hJywgJzIwMCcsICctaW1hZScsICc8aW5maWxlLm1hZT4nLCAnLW9tYWUnLCAnPG91dGZpbGUubWFlPic=

> <r_lp_tautomer_probability>
1

> <r_epik_Ionization_Penalty>
  0.0006

> <r_epik_Ionization_Penalty_Charging>
  0.0006

> <r_epik_Ionization_Penalty_Neutral>
  0.0000

> <r_epik_State_Penalty>
  0.0000

> <r_epik_Charging_Adjusted_Penalty>
0.000555743286498187

> <i_epik_Tot_Q>
1

> <i_epik_Tot_abs_Q>
1

> <i_f3d_flags>
0

> <s_lp_Force_Field>
OPLS_2005

> <r_lp_Energy>
20.859313

> <b_lp_Chiralities_Consistent>
1

> <s_lp_Variant>
mol_ID_225-1

> <s_m_subgroup_title>
ligprep_SpotXplore-out1

> <s_m_subgroupid>
ligprep_SpotXplore-out1

> <b_m_subgroup_collapsed>
0

$$$$
mol_ID_226
                    3D
 Schrodinger Suite 2020-4.
 13 13  0  0  1  0            999 V2000
    0.0387    0.0134   -0.0000 C   0  0  0  0  0  0
    1.5289    0.0010   -0.0000 C   0  0  0  0  0  0
    2.4683    0.9939   -0.0000 C   0  0  0  0  0  0
    3.6870    0.2672    0.0000 C   0  0  0  0  0  0
    4.9406    0.8730    0.0000 N   0  0  0  0  0  0
    3.5197   -1.0408    0.0000 N   0  0  0  0  0  0
    2.1307   -1.2212    0.0000 O   0  0  0  0  0  0
   -0.3429    1.0346   -0.0000 H   0  0  0  0  0  0
   -0.3518   -0.4933    0.8826 H   0  0  0  0  0  0
   -0.3518   -0.4933   -0.8826 H   0  0  0  0  0  0
    2.3066    2.0616   -0.0000 H   0  0  0  0  0  0
    5.0425    1.8774    0.0000 H   0  0  0  0  0  0
    5.7886    0.3246    0.0000 H   0  0  0  0  0  0
  1  2  1  0  0  0
  1  8  1  0  0  0
  1  9  1  0  0  0
  1 10  1  0  0  0
  2  7  1  0  0  0
  2  3  2  0  0  0
  3  4  1  0  0  0
  3 11  1  0  0  0
  4  5  1  0  0  0
  4  6  2  0  0  0
  5 12  1  0  0  0
  5 13  1  0  0  0
  6  7  1  0  0  0
M  END
> <s_m_entry_id>
1119

> <s_m_entry_name>
Spot_Xplore.std.226

> <s_m_Source_Path>
/Volumes/cluster/ddu/2448959/Work/2023/01_Fragment_screening_lib/1_Library_Construction/Work/SpotX/Ph4_Hypo_JC2

> <s_m_Source_File>
SpotX.maegz

> <i_m_Source_File_Index>
253

> <s_m_job_name>
ligprep_SpotXplore

> <i_lp_mmshare_version>
52144

> <s_epik_input>
W0NIM11jMVtjSF1jKFtOSDJdKW5vMQ==

> <s_epik_cmdline>
J2VwaWtfcHl0aG9uJywgJy1waHQnLCAnMS4wJywgJy1waCcsICc3LjAnLCAnLXRuJywgJzgnLCAnLW1hJywgJzIwMCcsICctaW1hZScsICc8aW5maWxlLm1hZT4nLCAnLW9tYWUnLCAnPG91dGZpbGUubWFlPic=

> <r_lp_tautomer_probability>
1

> <r_epik_Ionization_Penalty>
  0.0001

> <r_epik_Ionization_Penalty_Charging>
  0.0000

> <r_epik_Ionization_Penalty_Neutral>
  0.0001

> <r_epik_State_Penalty>
  0.0000

> <r_epik_Charging_Adjusted_Penalty>
0

> <i_epik_Tot_Q>
0

> <i_epik_Tot_abs_Q>
0

> <i_f3d_flags>
0

> <s_lp_Force_Field>
OPLS_2005

> <r_lp_Energy>
-1.534147

> <b_lp_Chiralities_Consistent>
1

> <s_lp_Variant>
mol_ID_226-1

> <s_m_subgroup_title>
ligprep_SpotXplore-out1

> <s_m_subgroupid>
ligprep_SpotXplore-out1

> <b_m_subgroup_collapsed>
0

$$$$
mol_ID_227
                    3D
 Schrodinger Suite 2020-4.
 19 21  0  0  1  0            999 V2000
    4.3657    1.4297   -1.4384 C   0  0  0  0  0  0
    4.3866    0.0923   -1.4425 C   0  0  0  0  0  0
    3.8470   -0.3266   -0.0878 C   0  0  1  0  0  0
    4.3788    0.7547    0.6931 O   0  0  0  0  0  0
    3.8128    1.8233   -0.0815 C   0  0  2  0  0  0
    2.3547    1.4168   -0.0301 C   0  0  0  0  0  0
    1.1569    2.1465   -0.0135 C   0  0  0  0  0  0
   -0.0444    1.3966    0.0094 C   0  0  0  0  0  0
   -0.0214   -0.0249    0.0045 C   0  0  0  0  0  0
    1.2032   -0.7354   -0.0229 C   0  0  0  0  0  0
    2.3768    0.0328   -0.0343 C   0  0  0  0  0  0
    4.6403    2.1119   -2.2291 H   0  0  0  0  0  0
    4.6822   -0.5763   -2.2373 H   0  0  0  0  0  0
    4.1254   -1.3216    0.2600 H   0  0  0  0  0  0
    4.0598    2.8243    0.2725 H   0  0  0  0  0  0
    1.1514    3.2263   -0.0191 H   0  0  0  0  0  0
   -0.9930    1.9129    0.0266 H   0  0  0  0  0  0
   -0.9526   -0.5717    0.0182 H   0  0  0  0  0  0
    1.2331   -1.8149   -0.0357 H   0  0  0  0  0  0
  1  5  1  0  0  0
  1  2  2  0  0  0
  1 12  1  0  0  0
  2  3  1  0  0  0
  2 13  1  0  0  0
  3 11  1  0  0  0
  3  4  1  0  0  0
  3 14  1  0  0  0
  4  5  1  0  0  0
  5  6  1  0  0  0
  5 15  1  0  0  0
  6 11  2  0  0  0
  6  7  1  0  0  0
  7  8  2  0  0  0
  7 16  1  0  0  0
  8  9  1  0  0  0
  8 17  1  0  0  0
  9 10  2  0  0  0
  9 18  1  0  0  0
 10 11  1  0  0  0
 10 19  1  0  0  0
M  END
> <s_m_entry_id>
1120

> <s_m_entry_name>
Spot_Xplore.std.227

> <s_m_Source_Path>
/Volumes/cluster/ddu/2448959/Work/2023/01_Fragment_screening_lib/1_Library_Construction/Work/SpotX/Ph4_Hypo_JC2

> <s_m_Source_File>
SpotX.maegz

> <i_m_Source_File_Index>
254

> <s_m_job_name>
ligprep_SpotXplore

> <i_lp_mmshare_version>
52144

> <s_epik_input>
W0NIXTE9W0NIXVtDQEhdKE8yKWMoYzNbQ0BASF0xMilbY0hdW2NIXVtjSF1bY0hdMw==

> <s_epik_cmdline>
J2VwaWtfcHl0aG9uJywgJy1waHQnLCAnMS4wJywgJy1waCcsICc3LjAnLCAnLXRuJywgJzgnLCAnLW1hJywgJzIwMCcsICctaW1hZScsICc8aW5maWxlLm1hZT4nLCAnLW9tYWUnLCAnPG91dGZpbGUubWFlPic=

> <r_lp_tautomer_probability>
1

> <r_epik_Ionization_Penalty>
  0.0000

> <r_epik_Ionization_Penalty_Charging>
  0.0000

> <r_epik_Ionization_Penalty_Neutral>
  0.0000

> <r_epik_State_Penalty>
  0.0000

> <r_epik_Charging_Adjusted_Penalty>
0

> <i_epik_Tot_Q>
0

> <i_epik_Tot_abs_Q>
0

> <i_f3d_flags>
0

> <s_lp_Force_Field>
OPLS_2005

> <r_lp_Energy>
74.679855

> <b_lp_Chiralities_Consistent>
1

> <s_lp_Variant>
mol_ID_227-1

> <s_m_subgroup_title>
ligprep_SpotXplore-out1

> <s_m_subgroupid>
ligprep_SpotXplore-out1

> <b_m_subgroup_collapsed>
0

$$$$
mol_ID_228
                    3D
 Schrodinger Suite 2020-4.
 34 35  0  0  1  0            999 V2000
   -0.7948    1.2308   -0.1533 C   0  0  0  0  0  0
   -0.0780    0.0048   -0.1622 O   0  0  0  0  0  0
    1.2984    0.0558   -0.0942 C   0  0  0  0  0  0
    2.0459    1.2586   -0.0231 C   0  0  0  0  0  0
    3.4521    1.2232    0.0459 C   0  0  0  0  0  0
    4.1328   -0.0104    0.0466 C   0  0  0  0  0  0
    5.6496   -0.0485    0.1251 C   0  0  0  0  0  0
    6.1612   -0.7454    1.3037 N   0  0  0  0  0  0
    7.6169   -0.8687    1.1956 C   0  0  0  0  0  0
    8.1656   -1.6630    2.3965 C   0  0  0  0  0  0
    7.8150   -0.9832    3.6594 N   0  3  0  0  0  0
    6.3576   -0.7682    3.7562 C   0  0  0  0  0  0
    5.8527    0.0068    2.5249 C   0  0  0  0  0  0
    3.3958   -1.2091   -0.0285 C   0  0  0  0  0  0
    1.9898   -1.1744   -0.0971 C   0  0  0  0  0  0
    1.2977   -2.3367   -0.1658 F   0  0  0  0  0  0
   -1.8629    1.0231   -0.2148 H   0  0  0  0  0  0
   -0.5313    1.8537   -1.0091 H   0  0  0  0  0  0
   -0.6197    1.7882    0.7680 H   0  0  0  0  0  0
    1.5634    2.2240   -0.0200 H   0  0  0  0  0  0
    4.0057    2.1490    0.1013 H   0  0  0  0  0  0
    6.0044   -0.5578   -0.7720 H   0  0  0  0  0  0
    6.0501    0.9661    0.0865 H   0  0  0  0  0  0
    7.8715   -1.3913    0.2726 H   0  0  0  0  0  0
    8.0810    0.1177    1.1436 H   0  0  0  0  0  0
    7.7609   -2.6763    2.4029 H   0  0  0  0  0  0
    9.2499   -1.7520    2.3290 H   0  0  0  0  0  0
    8.1272   -1.5406    4.4417 H   0  0  0  0  0  0
    5.8508   -1.7310    3.8367 H   0  0  0  0  0  0
    6.1388   -0.2144    4.6692 H   0  0  0  0  0  0
    6.3045    0.9995    2.4852 H   0  0  0  0  0  0
    4.7754    0.1498    2.6148 H   0  0  0  0  0  0
    3.9075   -2.1605   -0.0315 H   0  0  0  0  0  0
    8.2779   -0.0858    3.6846 H   0  0  0  0  0  0
  1  2  1  0  0  0
  1 17  1  0  0  0
  1 18  1  0  0  0
  1 19  1  0  0  0
  2  3  1  0  0  0
  3 15  1  0  0  0
  3  4  2  0  0  0
  4  5  1  0  0  0
  4 20  1  0  0  0
  5  6  2  0  0  0
  5 21  1  0  0  0
  6  7  1  0  0  0
  6 14  1  0  0  0
  7  8  1  0  0  0
  7 22  1  0  0  0
  7 23  1  0  0  0
  8 13  1  0  0  0
  8  9  1  0  0  0
  9 10  1  0  0  0
  9 24  1  0  0  0
  9 25  1  0  0  0
 10 11  1  0  0  0
 10 26  1  0  0  0
 10 27  1  0  0  0
 11 12  1  0  0  0
 11 28  1  0  0  0
 11 34  1  0  0  0
 12 13  1  0  0  0
 12 29  1  0  0  0
 12 30  1  0  0  0
 13 31  1  0  0  0
 13 32  1  0  0  0
 14 15  2  0  0  0
 14 33  1  0  0  0
 15 16  1  0  0  0
M  CHG  1  11   1
M  END
> <s_m_entry_id>
1121

> <s_m_entry_name>
Spot_Xplore.std.228

> <s_m_Source_Path>
/Volumes/cluster/ddu/2448959/Work/2023/01_Fragment_screening_lib/1_Library_Construction/Work/SpotX/Ph4_Hypo_JC2

> <s_m_Source_File>
SpotX.maegz

> <i_m_Source_File_Index>
255

> <s_m_job_name>
ligprep_SpotXplore

> <i_lp_mmshare_version>
52144

> <s_epik_input>
W0NIM11PYzFbY0hdW2NIXWMoW2NIXWMxRilbQ0gyXU4yW0NIMl1bQ0gyXVtOSF1bQ0gyXVtDSDJdMg==

> <s_epik_cmdline>
J2VwaWtfcHl0aG9uJywgJy1waHQnLCAnMS4wJywgJy1waCcsICc3LjAnLCAnLXRuJywgJzgnLCAnLW1hJywgJzIwMCcsICctaW1hZScsICc8aW5maWxlLm1hZT4nLCAnLW9tYWUnLCAnPG91dGZpbGUubWFlPic=

> <r_lp_tautomer_probability>
1

> <r_epik_Ionization_Penalty>
  0.0612

> <r_epik_Ionization_Penalty_Charging>
  0.0047

> <r_epik_Ionization_Penalty_Neutral>
  0.0565

> <r_epik_State_Penalty>
  0.4023

> <r_epik_Charging_Adjusted_Penalty>
0.406971687205427

> <i_epik_Tot_Q>
1

> <i_epik_Tot_abs_Q>
1

> <i_f3d_flags>
0

> <s_lp_Force_Field>
OPLS_2005

> <r_lp_Energy>
17.534362

> <b_lp_Chiralities_Consistent>
1

> <s_lp_Variant>
mol_ID_228-1

> <s_m_subgroup_title>
ligprep_SpotXplore-out1

> <s_m_subgroupid>
ligprep_SpotXplore-out1

> <b_m_subgroup_collapsed>
0

$$$$
mol_ID_228
                    3D
 Schrodinger Suite 2020-4.
 34 35  0  0  1  0            999 V2000
   -0.7910    1.1254   -0.0212 C   0  0  0  0  0  0
   -0.0454   -0.0654   -0.2283 O   0  0  0  0  0  0
    1.3294    0.0057   -0.1499 C   0  0  0  0  0  0
    2.0485    1.1952    0.1303 C   0  0  0  0  0  0
    3.4555    1.1819    0.1922 C   0  0  0  0  0  0
    4.1656   -0.0163   -0.0232 C   0  0  0  0  0  0
    5.6827   -0.0353    0.0422 C   0  0  0  0  0  0
    6.1834   -0.6187    1.3110 N   0  3  0  0  0  0
    5.9001    0.2137    2.5081 C   0  0  0  0  0  0
    6.4065   -0.4881    3.7827 C   0  0  0  0  0  0
    7.8431   -0.7198    3.6840 N   0  0  1  0  0  0
    8.0823   -1.6190    2.5609 C   0  0  0  0  0  0
    7.6283   -0.9478    1.2509 C   0  0  0  0  0  0
    3.4564   -1.2009   -0.3040 C   0  0  0  0  0  0
    2.0496   -1.1884   -0.3647 C   0  0  0  0  0  0
    1.3856   -2.3380   -0.6323 F   0  0  0  0  0  0
   -1.8541    0.9054   -0.1183 H   0  0  0  0  0  0
   -0.5430    1.8855   -0.7632 H   0  0  0  0  0  0
   -0.6280    1.5289    0.9791 H   0  0  0  0  0  0
    1.5430    2.1333    0.3020 H   0  0  0  0  0  0
    3.9871    2.0975    0.4079 H   0  0  0  0  0  0
    6.0448   -0.6270   -0.8000 H   0  0  0  0  0  0
    6.0825    0.9713   -0.0912 H   0  0  0  0  0  0
    6.3698    1.1929    2.4000 H   0  0  0  0  0  0
    4.8276    0.3838    2.6013 H   0  0  0  0  0  0
    6.2108    0.1368    4.6545 H   0  0  0  0  0  0
    5.8839   -1.4324    3.9434 H   0  0  0  0  0  0
    8.3134    0.1586    3.5161 H   0  0  0  0  0  0
    9.1475   -1.8463    2.5134 H   0  0  0  0  0  0
    7.5606   -2.5642    2.7186 H   0  0  0  0  0  0
    7.8145   -1.6230    0.4149 H   0  0  0  0  0  0
    8.2092   -0.0427    1.0650 H   0  0  0  0  0  0
    3.9889   -2.1255   -0.4728 H   0  0  0  0  0  0
    5.6966   -1.4941    1.4403 H   0  0  0  0  0  0
  1  2  1  0  0  0
  1 17  1  0  0  0
  1 18  1  0  0  0
  1 19  1  0  0  0
  2  3  1  0  0  0
  3 15  1  0  0  0
  3  4  2  0  0  0
  4  5  1  0  0  0
  4 20  1  0  0  0
  5  6  2  0  0  0
  5 21  1  0  0  0
  6  7  1  0  0  0
  6 14  1  0  0  0
  7  8  1  0  0  0
  7 22  1  0  0  0
  7 23  1  0  0  0
  8 13  1  0  0  0
  8  9  1  0  0  0
  8 34  1  0  0  0
  9 10  1  0  0  0
  9 24  1  0  0  0
  9 25  1  0  0  0
 10 11  1  0  0  0
 10 26  1  0  0  0
 10 27  1  0  0  0
 11 12  1  0  0  0
 11 28  1  0  0  0
 12 13  1  0  0  0
 12 29  1  0  0  0
 12 30  1  0  0  0
 13 31  1  0  0  0
 13 32  1  0  0  0
 14 15  2  0  0  0
 14 33  1  0  0  0
 15 16  1  0  0  0
M  CHG  1   8   1
M  END
> <s_m_entry_id>
1122

> <s_m_entry_name>
Spot_Xplore.std.228

> <s_m_Source_Path>
/Volumes/cluster/ddu/2448959/Work/2023/01_Fragment_screening_lib/1_Library_Construction/Work/SpotX/Ph4_Hypo_JC2

> <s_m_Source_File>
SpotX.maegz

> <i_m_Source_File_Index>
256

> <s_m_job_name>
ligprep_SpotXplore

> <i_lp_mmshare_version>
52144

> <s_epik_input>
W0NIM11PYzFbY0hdW2NIXWMoW2NIXWMxRilbQ0gyXU4yW0NIMl1bQ0gyXVtOSF1bQ0gyXVtDSDJdMg==

> <s_epik_cmdline>
J2VwaWtfcHl0aG9uJywgJy1waHQnLCAnMS4wJywgJy1waCcsICc3LjAnLCAnLXRuJywgJzgnLCAnLW1hJywgJzIwMCcsICctaW1hZScsICc8aW5maWxlLm1hZT4nLCAnLW9tYWUnLCAnPG91dGZpbGUubWFlPic=

> <r_epik_Ionization_Penalty>
  0.0361

> <r_epik_Ionization_Penalty_Charging>
  0.0155

> <r_epik_Ionization_Penalty_Neutral>
  0.0207

> <r_epik_State_Penalty>
  0.4554

> <r_epik_Charging_Adjusted_Penalty>
0.470833360387091

> <i_epik_Tot_Q>
1

> <i_epik_Tot_abs_Q>
1

> <i_f3d_flags>
0

> <s_lp_Force_Field>
OPLS_2005

> <r_lp_Energy>
16.213087

> <b_lp_Chiralities_Consistent>
1

> <s_lp_Variant>
mol_ID_228-2

> <s_m_subgroup_title>
ligprep_SpotXplore-out1

> <s_m_subgroupid>
ligprep_SpotXplore-out1

> <b_m_subgroup_collapsed>
0

$$$$
mol_ID_229
                    3D
 Schrodinger Suite 2020-4.
 29 30  0  0  1  0            999 V2000
   -0.0576   -0.0724    0.0000 O   0  0  0  0  0  0
    1.3062   -0.0341    0.0000 C   0  0  0  0  0  0
    1.9780    1.2035    0.0000 C   0  0  0  0  0  0
    3.3859    1.2415   -0.0000 C   0  0  0  0  0  0
    4.1327    0.0420    0.0000 C   0  0  0  0  0  0
    5.6559    0.0719   -0.0000 C   0  0  0  0  0  0
    6.2276    0.7489   -1.2614 C   0  0  0  0  0  0
    7.7655    0.7600   -1.2327 C   0  0  0  0  0  0
    8.2623    1.4096   -0.0000 N   0  3  0  0  0  0
    7.7656    0.7600    1.2327 C   0  0  0  0  0  0
    6.2275    0.7489    1.2614 C   0  0  0  0  0  0
    3.4523   -1.1951    0.0000 C   0  0  0  0  0  0
    2.0445   -1.2333    0.0000 C   0  0  0  0  0  0
   -0.4529    0.7860    0.0000 H   0  0  0  0  0  0
    1.4167    2.1264    0.0000 H   0  0  0  0  0  0
    3.8877    2.1977   -0.0000 H   0  0  0  0  0  0
    6.0027   -0.9630    0.0000 H   0  0  0  0  0  0
    5.8805    0.2285   -2.1548 H   0  0  0  0  0  0
    5.8626    1.7738   -1.3389 H   0  0  0  0  0  0
    8.1539   -0.2581   -1.2836 H   0  0  0  0  0  0
    8.1566    1.2934   -2.0993 H   0  0  0  0  0  0
    9.2721    1.3853   -0.0000 H   0  0  0  0  0  0
    8.1539   -0.2581    1.2836 H   0  0  0  0  0  0
    8.1566    1.2934    2.0993 H   0  0  0  0  0  0
    5.8626    1.7738    1.3389 H   0  0  0  0  0  0
    5.8805    0.2285    2.1548 H   0  0  0  0  0  0
    4.0054   -2.1228    0.0000 H   0  0  0  0  0  0
    1.5329   -2.1848    0.0000 H   0  0  0  0  0  0
    7.9596    2.3733   -0.0000 H   0  0  0  0  0  0
  1  2  1  0  0  0
  1 14  1  0  0  0
  2 13  1  0  0  0
  2  3  2  0  0  0
  3  4  1  0  0  0
  3 15  1  0  0  0
  4  5  2  0  0  0
  4 16  1  0  0  0
  5  6  1  0  0  0
  5 12  1  0  0  0
  6 11  1  0  0  0
  6  7  1  0  0  0
  6 17  1  0  0  0
  7  8  1  0  0  0
  7 18  1  0  0  0
  7 19  1  0  0  0
  8  9  1  0  0  0
  8 20  1  0  0  0
  8 21  1  0  0  0
  9 10  1  0  0  0
  9 22  1  0  0  0
  9 29  1  0  0  0
 10 11  1  0  0  0
 10 23  1  0  0  0
 10 24  1  0  0  0
 11 25  1  0  0  0
 11 26  1  0  0  0
 12 13  2  0  0  0
 12 27  1  0  0  0
 13 28  1  0  0  0
M  CHG  1   9   1
M  END
> <s_m_entry_id>
1123

> <s_m_entry_name>
Spot_Xplore.std.229

> <s_m_Source_Path>
/Volumes/cluster/ddu/2448959/Work/2023/01_Fragment_screening_lib/1_Library_Construction/Work/SpotX/Ph4_Hypo_JC2

> <s_m_Source_File>
SpotX.maegz

> <i_m_Source_File_Index>
257

> <s_m_job_name>
ligprep_SpotXplore

> <i_lp_mmshare_version>
52144

> <s_epik_input>
W09IXWMxW2NIXVtjSF1jKFtjSF1bY0hdMSlbQ0hdMltDSDJdW0NIMl1bTkhdW0NIMl1bQ0gyXTI=

> <s_epik_cmdline>
J2VwaWtfcHl0aG9uJywgJy1waHQnLCAnMS4wJywgJy1waCcsICc3LjAnLCAnLXRuJywgJzgnLCAnLW1hJywgJzIwMCcsICctaW1hZScsICc8aW5maWxlLm1hZT4nLCAnLW9tYWUnLCAnPG91dGZpbGUubWFlPic=

> <r_lp_tautomer_probability>
1

> <r_epik_Ionization_Penalty>
  0.0012

> <r_epik_Ionization_Penalty_Charging>
  0.0006

> <r_epik_Ionization_Penalty_Neutral>
  0.0007

> <r_epik_State_Penalty>
  0.0000

> <r_epik_Charging_Adjusted_Penalty>
0.000555743286498187

> <i_epik_Tot_Q>
1

> <i_epik_Tot_abs_Q>
1

> <i_f3d_flags>
0

> <s_lp_Force_Field>
OPLS_2005

> <r_lp_Energy>
16.326927

> <b_lp_Chiralities_Consistent>
1

> <s_lp_Variant>
mol_ID_229-1

> <s_m_subgroup_title>
ligprep_SpotXplore-out1

> <s_m_subgroupid>
ligprep_SpotXplore-out1

> <b_m_subgroup_collapsed>
0

$$$$
mol_ID_230
                    3D
 Schrodinger Suite 2020-4.
 32 33  0  0  1  0            999 V2000
   -2.0197    5.4330   -0.2582 C   0  0  0  0  0  0
   -1.4742    4.0303   -0.0899 C   0  0  0  0  0  0
   -1.1090    3.5473    1.1843 C   0  0  0  0  0  0
   -0.6099    2.2345    1.2861 C   0  0  0  0  0  0
   -0.4965    1.4578    0.1148 C   0  0  0  0  0  0
    0.0420    0.0423    0.1697 C   0  0  0  0  0  0
    1.5681    0.0059    0.0259 C   0  0  0  0  0  0
    2.0759   -1.3559    0.0792 N   0  0  0  0  0  0
    3.4496   -1.6224   -0.0107 C   0  0  0  0  0  0
    4.4178   -0.6042   -0.1843 C   0  0  0  0  0  0
    5.7858   -0.9304   -0.2660 C   0  0  0  0  0  0
    6.1988   -2.2729   -0.1767 C   0  0  0  0  0  0
    5.2417   -3.2906   -0.0058 C   0  0  0  0  0  0
    3.8739   -2.9650    0.0771 C   0  0  0  0  0  0
   -0.8899    2.0353   -1.1109 C   0  0  0  0  0  0
   -1.3701    3.2931   -1.2180 N   0  0  0  0  0  0
   -1.7185    6.0712    0.5730 H   0  0  0  0  0  0
   -3.1090    5.4108   -0.2965 H   0  0  0  0  0  0
   -1.6518    5.8848   -1.1801 H   0  0  0  0  0  0
   -1.2074    4.1662    2.0642 H   0  0  0  0  0  0
   -0.3181    1.8337    2.2460 H   0  0  0  0  0  0
   -0.2579   -0.4151    1.1136 H   0  0  0  0  0  0
   -0.4246   -0.5462   -0.6216 H   0  0  0  0  0  0
    1.8597    0.4596   -0.9223 H   0  0  0  0  0  0
    2.0274    0.5907    0.8239 H   0  0  0  0  0  0
    1.4240   -2.1152    0.2152 H   0  0  0  0  0  0
    4.1318    0.4343   -0.2572 H   0  0  0  0  0  0
    6.5191   -0.1484   -0.3973 H   0  0  0  0  0  0
    7.2479   -2.5215   -0.2396 H   0  0  0  0  0  0
    5.5563   -4.3215    0.0622 H   0  0  0  0  0  0
    3.1489   -3.7550    0.2096 H   0  0  0  0  0  0
   -0.8152    1.4752   -2.0316 H   0  0  0  0  0  0
  1  2  1  0  0  0
  1 17  1  0  0  0
  1 18  1  0  0  0
  1 19  1  0  0  0
  2 16  1  0  0  0
  2  3  2  0  0  0
  3  4  1  0  0  0
  3 20  1  0  0  0
  4  5  2  0  0  0
  4 21  1  0  0  0
  5  6  1  0  0  0
  5 15  1  0  0  0
  6  7  1  0  0  0
  6 22  1  0  0  0
  6 23  1  0  0  0
  7  8  1  0  0  0
  7 24  1  0  0  0
  7 25  1  0  0  0
  8  9  1  0  0  0
  8 26  1  0  0  0
  9 14  1  0  0  0
  9 10  2  0  0  0
 10 11  1  0  0  0
 10 27  1  0  0  0
 11 12  2  0  0  0
 11 28  1  0  0  0
 12 13  1  0  0  0
 12 29  1  0  0  0
 13 14  2  0  0  0
 13 30  1  0  0  0
 14 31  1  0  0  0
 15 16  2  0  0  0
 15 32  1  0  0  0
M  END
> <s_m_entry_id>
1124

> <s_m_entry_name>
Spot_Xplore.std.230

> <s_m_Source_Path>
/Volumes/cluster/ddu/2448959/Work/2023/01_Fragment_screening_lib/1_Library_Construction/Work/SpotX/Ph4_Hypo_JC2

> <s_m_Source_File>
SpotX.maegz

> <i_m_Source_File_Index>
258

> <s_m_job_name>
ligprep_SpotXplore

> <i_lp_mmshare_version>
52144

> <s_epik_input>
W0NIM11jMVtjSF1bY0hdYyhbY0hdbjEpW0NIMl1bQ0gyXVtOSF1jMltjSF1bY0hdW2NIXVtjSF1bY0hdMg==

> <s_epik_cmdline>
J2VwaWtfcHl0aG9uJywgJy1waHQnLCAnMS4wJywgJy1waCcsICc3LjAnLCAnLXRuJywgJzgnLCAnLW1hJywgJzIwMCcsICctaW1hZScsICc8aW5maWxlLm1hZT4nLCAnLW9tYWUnLCAnPG91dGZpbGUubWFlPic=

> <r_epik_Ionization_Penalty>
  0.0765

> <r_epik_Ionization_Penalty_Charging>
  0.0000

> <r_epik_Ionization_Penalty_Neutral>
  0.0765

> <r_epik_State_Penalty>
  0.0653

> <r_epik_Charging_Adjusted_Penalty>
0.0652590997175104

> <i_epik_Tot_Q>
0

> <i_epik_Tot_abs_Q>
0

> <i_f3d_flags>
0

> <s_lp_Force_Field>
OPLS_2005

> <r_lp_Energy>
6.912931

> <b_lp_Chiralities_Consistent>
1

> <s_lp_Variant>
mol_ID_230-1

> <s_m_subgroup_title>
ligprep_SpotXplore-out1

> <s_m_subgroupid>
ligprep_SpotXplore-out1

> <b_m_subgroup_collapsed>
0

$$$$
mol_ID_230
                    3D
 Schrodinger Suite 2020-4.
 33 34  0  0  1  0            999 V2000
   -2.0769    5.4401    0.2240 C   0  0  0  0  0  0
   -1.5208    4.0428    0.0503 C   0  0  0  0  0  0
   -1.1222    3.5432   -1.2082 C   0  0  0  0  0  0
   -0.6147    2.2303   -1.2985 C   0  0  0  0  0  0
   -0.5168    1.4434   -0.1299 C   0  0  0  0  0  0
    0.0306    0.0312   -0.1944 C   0  0  0  0  0  0
    1.5550   -0.0001   -0.0308 C   0  0  0  0  0  0
    2.0692   -1.3587   -0.0945 N   0  0  0  0  0  0
    3.4430   -1.6208    0.0087 C   0  0  0  0  0  0
    4.4039   -0.6024    0.2180 C   0  0  0  0  0  0
    5.7718   -0.9244    0.3135 C   0  0  0  0  0  0
    6.1923   -2.2629    0.2014 C   0  0  0  0  0  0
    5.2427   -3.2808   -0.0058 C   0  0  0  0  0  0
    3.8747   -2.9594   -0.1013 C   0  0  0  0  0  0
   -0.9310    1.9958    1.1012 C   0  0  0  0  0  0
   -1.4121    3.2575    1.1458 N   0  3  0  0  0  0
   -1.7825    6.0821   -0.6069 H   0  0  0  0  0  0
   -1.7098    5.8914    1.1464 H   0  0  0  0  0  0
   -3.1659    5.4094    0.2644 H   0  0  0  0  0  0
   -1.2032    4.1560   -2.0944 H   0  0  0  0  0  0
   -0.3034    1.8348   -2.2546 H   0  0  0  0  0  0
   -0.4425   -0.5698    0.5837 H   0  0  0  0  0  0
   -0.2543   -0.4172   -1.1474 H   0  0  0  0  0  0
    2.0228    0.5962   -0.8152 H   0  0  0  0  0  0
    1.8323    0.4423    0.9269 H   0  0  0  0  0  0
    1.4255   -2.1195   -0.2597 H   0  0  0  0  0  0
    4.1125    0.4332    0.3086 H   0  0  0  0  0  0
    6.4997   -0.1427    0.4738 H   0  0  0  0  0  0
    7.2416   -2.5084    0.2750 H   0  0  0  0  0  0
    5.5628   -4.3087   -0.0911 H   0  0  0  0  0  0
    3.1555   -3.7500   -0.2605 H   0  0  0  0  0  0
   -0.8910    1.4721    2.0454 H   0  0  0  0  0  0
   -1.7059    3.6351    2.0471 H   0  0  0  0  0  0
  1  2  1  0  0  0
  1 17  1  0  0  0
  1 18  1  0  0  0
  1 19  1  0  0  0
  2 16  1  0  0  0
  2  3  2  0  0  0
  3  4  1  0  0  0
  3 20  1  0  0  0
  4  5  2  0  0  0
  4 21  1  0  0  0
  5  6  1  0  0  0
  5 15  1  0  0  0
  6  7  1  0  0  0
  6 22  1  0  0  0
  6 23  1  0  0  0
  7  8  1  0  0  0
  7 24  1  0  0  0
  7 25  1  0  0  0
  8  9  1  0  0  0
  8 26  1  0  0  0
  9 14  1  0  0  0
  9 10  2  0  0  0
 10 11  1  0  0  0
 10 27  1  0  0  0
 11 12  2  0  0  0
 11 28  1  0  0  0
 12 13  1  0  0  0
 12 29  1  0  0  0
 13 14  2  0  0  0
 13 30  1  0  0  0
 14 31  1  0  0  0
 15 16  2  0  0  0
 15 32  1  0  0  0
 16 33  1  0  0  0
M  CHG  1  16   1
M  END
> <s_m_entry_id>
1125

> <s_m_entry_name>
Spot_Xplore.std.230

> <s_m_Source_Path>
/Volumes/cluster/ddu/2448959/Work/2023/01_Fragment_screening_lib/1_Library_Construction/Work/SpotX/Ph4_Hypo_JC2

> <s_m_Source_File>
SpotX.maegz

> <i_m_Source_File_Index>
259

> <s_m_job_name>
ligprep_SpotXplore

> <i_lp_mmshare_version>
52144

> <s_epik_input>
W0NIM11jMVtjSF1bY0hdYyhbY0hdbjEpW0NIMl1bQ0gyXVtOSF1jMltjSF1bY0hdW2NIXVtjSF1bY0hdMg==

> <s_epik_cmdline>
J2VwaWtfcHl0aG9uJywgJy1waHQnLCAnMS4wJywgJy1waCcsICc3LjAnLCAnLXRuJywgJzgnLCAnLW1hJywgJzIwMCcsICctaW1hZScsICc8aW5maWxlLm1hZT4nLCAnLW9tYWUnLCAnPG91dGZpbGUubWFlPic=

> <r_epik_Ionization_Penalty>
  1.2687

> <r_epik_Ionization_Penalty_Charging>
  1.2681

> <r_epik_Ionization_Penalty_Neutral>
  0.0006

> <r_epik_State_Penalty>
  1.3393

> <r_epik_Charging_Adjusted_Penalty>
2.6074464260939

> <i_epik_Tot_Q>
1

> <i_epik_Tot_abs_Q>
1

> <i_f3d_flags>
0

> <s_lp_Force_Field>
OPLS_2005

> <r_lp_Energy>
14.192345

> <b_lp_Chiralities_Consistent>
1

> <s_lp_Variant>
mol_ID_230-2

> <s_m_subgroup_title>
ligprep_SpotXplore-out1

> <s_m_subgroupid>
ligprep_SpotXplore-out1

> <b_m_subgroup_collapsed>
0

$$$$
mol_ID_231
                    3D
 Schrodinger Suite 2020-4.
 21 21  0  0  1  0            999 V2000
   -0.5638    1.3075   -0.0659 C   0  0  0  0  0  0
    0.0978   -0.0748   -0.0785 C   0  0  0  0  0  0
    1.5913   -0.0067    0.0122 C   0  0  0  0  0  0
    2.4253    0.0431   -1.0331 N   0  3  0  0  0  0
    3.7236    0.1067   -0.6068 C   0  0  0  0  0  0
    3.6814    0.1024    0.7624 C   0  0  0  0  0  0
    2.3576    0.0357    1.1167 N   0  0  0  0  0  0
    1.8280   -0.0010    2.4883 C   0  0  0  0  0  0
    1.5199   -1.4147    2.9929 C   0  0  0  0  0  0
    2.1033   -2.3765    2.4447 O   0  0  0  0  0  0
    0.6970   -1.5055    3.9290 O   0  5  0  0  0  0
   -1.6480    1.2185   -0.1370 H   0  0  0  0  0  0
   -0.2235    1.9141   -0.9055 H   0  0  0  0  0  0
   -0.3349    1.8486    0.8524 H   0  0  0  0  0  0
   -0.2606   -0.6889    0.7475 H   0  0  0  0  0  0
   -0.1424   -0.6056   -1.0003 H   0  0  0  0  0  0
    4.5580    0.1477   -1.2914 H   0  0  0  0  0  0
    4.4746    0.1360    1.4952 H   0  0  0  0  0  0
    2.5665    0.4567    3.1473 H   0  0  0  0  0  0
    0.9331    0.6201    2.5341 H   0  0  0  0  0  0
    2.1326    0.0288   -2.0017 H   0  0  0  0  0  0
  1  2  1  0  0  0
  1 12  1  0  0  0
  1 13  1  0  0  0
  1 14  1  0  0  0
  2  3  1  0  0  0
  2 15  1  0  0  0
  2 16  1  0  0  0
  3  7  1  0  0  0
  3  4  2  0  0  0
  4  5  1  0  0  0
  4 21  1  0  0  0
  5  6  2  0  0  0
  5 17  1  0  0  0
  6  7  1  0  0  0
  6 18  1  0  0  0
  7  8  1  0  0  0
  8  9  1  0  0  0
  8 19  1  0  0  0
  8 20  1  0  0  0
  9 10  2  0  0  0
  9 11  1  0  0  0
M  CHG  2   4   1  11  -1
M  END
> <s_m_entry_id>
1126

> <s_m_entry_name>
Spot_Xplore.std.231

> <s_m_Source_Path>
/Volumes/cluster/ddu/2448959/Work/2023/01_Fragment_screening_lib/1_Library_Construction/Work/SpotX/Ph4_Hypo_JC2

> <s_m_Source_File>
SpotX.maegz

> <i_m_Source_File_Index>
260

> <s_m_job_name>
ligprep_SpotXplore

> <i_lp_mmshare_version>
52144

> <s_epik_input>
W0NIM11bQ0gyXWMxbltjSF1bY0hdbjFbQ0gyXUMoPU8pW09IXQ==

> <s_epik_cmdline>
J2VwaWtfcHl0aG9uJywgJy1waHQnLCAnMS4wJywgJy1waCcsICc3LjAnLCAnLXRuJywgJzgnLCAnLW1hJywgJzIwMCcsICctaW1hZScsICc8aW5maWxlLm1hZT4nLCAnLW9tYWUnLCAnPG91dGZpbGUubWFlPic=

> <r_lp_tautomer_probability>
1

> <r_epik_Ionization_Penalty>
  0.0411

> <r_epik_Ionization_Penalty_Charging>
  0.0001

> <r_epik_Ionization_Penalty_Neutral>
  0.0410

> <r_epik_State_Penalty>
  0.0345

> <r_epik_Charging_Adjusted_Penalty>
0.0346419732773659

> <i_epik_Tot_Q>
0

> <i_epik_Tot_abs_Q>
2

> <i_f3d_flags>
0

> <s_lp_Force_Field>
OPLS_2005

> <r_lp_Energy>
0.329124

> <b_lp_Chiralities_Consistent>
1

> <s_lp_Variant>
mol_ID_231-1

> <s_m_subgroup_title>
ligprep_SpotXplore-out1

> <s_m_subgroupid>
ligprep_SpotXplore-out1

> <b_m_subgroup_collapsed>
0

$$$$
mol_ID_232
                    3D
 Schrodinger Suite 2020-4.
 18 19  0  0  1  0            999 V2000
   -4.5338    0.5478   -4.7081 O   0  0  0  0  0  0
   -4.0502    1.6767   -4.6545 C   0  0  0  0  0  0
   -4.9216    2.8960   -4.2976 C   0  0  0  0  0  0
   -4.4529    4.2139   -4.9674 C   0  0  0  0  0  0
   -2.9456    4.4974   -4.7989 C   0  0  0  0  0  0
   -2.1762    3.2313   -4.9326 C   0  0  0  0  0  0
   -0.8308    3.2884   -5.1244 O   0  0  0  0  0  0
   -0.4165    1.9916   -5.2211 C   0  0  0  0  0  0
   -1.4685    1.1264   -5.0842 C   0  0  0  0  0  0
   -2.6151    1.9426   -4.8779 C   0  0  0  0  0  0
   -5.9559    2.6879   -4.5719 H   0  0  0  0  0  0
   -4.9032    3.0122   -3.2138 H   0  0  0  0  0  0
   -4.6710    4.1378   -6.0336 H   0  0  0  0  0  0
   -5.0371    5.0589   -4.6027 H   0  0  0  0  0  0
   -2.6097    5.2329   -5.5302 H   0  0  0  0  0  0
   -2.7599    4.9225   -3.8121 H   0  0  0  0  0  0
    0.6430    1.8604   -5.3850 H   0  0  0  0  0  0
   -1.4179    0.0481   -5.1187 H   0  0  0  0  0  0
  1  2  2  0  0  0
  2 10  1  0  0  0
  2  3  1  0  0  0
  3  4  1  0  0  0
  3 11  1  0  0  0
  3 12  1  0  0  0
  4  5  1  0  0  0
  4 13  1  0  0  0
  4 14  1  0  0  0
  5  6  1  0  0  0
  5 15  1  0  0  0
  5 16  1  0  0  0
  6 10  2  0  0  0
  6  7  1  0  0  0
  7  8  1  0  0  0
  8  9  2  0  0  0
  8 17  1  0  0  0
  9 10  1  0  0  0
  9 18  1  0  0  0
M  END
> <s_m_entry_id>
1127

> <s_m_entry_name>
Spot_Xplore.std.232

> <s_m_Source_Path>
/Volumes/cluster/ddu/2448959/Work/2023/01_Fragment_screening_lib/1_Library_Construction/Work/SpotX/Ph4_Hypo_JC2

> <s_m_Source_File>
SpotX.maegz

> <i_m_Source_File_Index>
261

> <s_m_job_name>
ligprep_SpotXplore

> <i_lp_mmshare_version>
52144

> <s_epik_input>
W0NIMl0xW0NIMl1bQ0gyXUMoPU8pYyhjMTIpW2NIXVtjSF1vMg==

> <s_epik_cmdline>
J2VwaWtfcHl0aG9uJywgJy1waHQnLCAnMS4wJywgJy1waCcsICc3LjAnLCAnLXRuJywgJzgnLCAnLW1hJywgJzIwMCcsICctaW1hZScsICc8aW5maWxlLm1hZT4nLCAnLW9tYWUnLCAnPG91dGZpbGUubWFlPic=

> <r_lp_tautomer_probability>
1

> <r_epik_Ionization_Penalty>
  0.0000

> <r_epik_Ionization_Penalty_Charging>
  0.0000

> <r_epik_Ionization_Penalty_Neutral>
  0.0000

> <r_epik_State_Penalty>
  0.0000

> <r_epik_Charging_Adjusted_Penalty>
0

> <i_epik_Tot_Q>
0

> <i_epik_Tot_abs_Q>
0

> <i_f3d_flags>
0

> <s_lp_Force_Field>
OPLS_2005

> <r_lp_Energy>
8.685692

> <b_lp_Chiralities_Consistent>
1

> <s_lp_Variant>
mol_ID_232-1

> <s_m_subgroup_title>
ligprep_SpotXplore-out1

> <s_m_subgroupid>
ligprep_SpotXplore-out1

> <b_m_subgroup_collapsed>
0

$$$$
mol_ID_233
                    3D
 Schrodinger Suite 2020-4.
 16 16  0  0  1  0            999 V2000
   -0.0113   -0.0151    0.0000 C   0  0  0  0  0  0
    1.5026    0.0028   -0.0000 C   0  0  0  0  0  0
    2.2274    1.2154   -0.0000 C   0  0  0  0  0  0
    3.5788    1.2340   -0.0000 N   0  0  0  0  0  0
    4.2047    0.0325   -0.0000 C   0  0  0  0  0  0
    5.7255    0.0247   -0.0000 C   0  0  0  0  0  0
    6.1666   -0.6136    1.0837 F   0  0  0  0  0  0
    6.1666   -0.6136   -1.0837 F   0  0  0  0  0  0
    6.2301    1.2601   -0.0000 F   0  0  0  0  0  0
    3.4756   -1.1785    0.0000 C   0  0  0  0  0  0
    2.1239   -1.1983    0.0000 N   0  0  0  0  0  0
   -0.4180    0.9966    0.0000 H   0  0  0  0  0  0
   -0.3844   -0.5319    0.8845 H   0  0  0  0  0  0
   -0.3844   -0.5319   -0.8845 H   0  0  0  0  0  0
    1.7260    2.1722   -0.0000 H   0  0  0  0  0  0
    3.9787   -2.1342    0.0000 H   0  0  0  0  0  0
  1  2  1  0  0  0
  1 12  1  0  0  0
  1 13  1  0  0  0
  1 14  1  0  0  0
  2 11  1  0  0  0
  2  3  2  0  0  0
  3  4  1  0  0  0
  3 15  1  0  0  0
  4  5  2  0  0  0
  5  6  1  0  0  0
  5 10  1  0  0  0
  6  7  1  0  0  0
  6  8  1  0  0  0
  6  9  1  0  0  0
 10 11  2  0  0  0
 10 16  1  0  0  0
M  END
> <s_m_entry_id>
1128

> <s_m_entry_name>
Spot_Xplore.std.233

> <s_m_Source_Path>
/Volumes/cluster/ddu/2448959/Work/2023/01_Fragment_screening_lib/1_Library_Construction/Work/SpotX/Ph4_Hypo_JC2

> <s_m_Source_File>
SpotX.maegz

> <i_m_Source_File_Index>
262

> <s_m_job_name>
ligprep_SpotXplore

> <i_lp_mmshare_version>
52144

> <s_epik_input>
W0NIM11jMVtjSF1uYyhDKEYpKEYpRilbY0hdbjE=

> <s_epik_cmdline>
J2VwaWtfcHl0aG9uJywgJy1waHQnLCAnMS4wJywgJy1waCcsICc3LjAnLCAnLXRuJywgJzgnLCAnLW1hJywgJzIwMCcsICctaW1hZScsICc8aW5maWxlLm1hZT4nLCAnLW9tYWUnLCAnPG91dGZpbGUubWFlPic=

> <r_lp_tautomer_probability>
1

> <r_epik_Ionization_Penalty>
  0.0000

> <r_epik_Ionization_Penalty_Charging>
  0.0000

> <r_epik_Ionization_Penalty_Neutral>
  0.0000

> <r_epik_State_Penalty>
  0.0000

> <r_epik_Charging_Adjusted_Penalty>
0

> <i_epik_Tot_Q>
0

> <i_epik_Tot_abs_Q>
0

> <i_f3d_flags>
0

> <s_lp_Force_Field>
OPLS_2005

> <r_lp_Energy>
12.523848

> <b_lp_Chiralities_Consistent>
1

> <s_lp_Variant>
mol_ID_233-1

> <s_m_subgroup_title>
ligprep_SpotXplore-out1

> <s_m_subgroupid>
ligprep_SpotXplore-out1

> <b_m_subgroup_collapsed>
0

$$$$
mol_ID_234
                    3D
 Schrodinger Suite 2020-4.
 31 32  0  0  1  0            999 V2000
   -4.2369   -0.1790   -0.1564 F   0  0  0  0  0  0
   -2.8860   -0.0985   -0.1174 C   0  0  0  0  0  0
   -2.1178   -1.2556    0.1159 C   0  0  0  0  0  0
   -0.7124   -1.1719    0.1577 C   0  0  0  0  0  0
   -0.0697    0.0697   -0.0331 C   0  0  0  0  0  0
    1.4459    0.1564    0.0148 C   0  0  0  0  0  0
    2.0171    0.0971    1.4458 C   0  0  1  0  0  0
    3.5560    0.0134    1.4228 C   0  0  0  0  0  0
    4.1208   -0.0296    2.8506 C   0  0  0  0  0  0
    3.6206    1.1685    3.6726 C   0  0  0  0  0  0
    2.1429    1.2175    3.6735 N   0  3  0  0  0  0
    1.5647    1.2933    2.3138 C   0  0  0  0  0  0
   -0.8427    1.2267   -0.2691 C   0  0  0  0  0  0
   -2.2482    1.1423   -0.3101 C   0  0  0  0  0  0
   -2.6068   -2.2075    0.2620 H   0  0  0  0  0  0
   -0.1291   -2.0634    0.3368 H   0  0  0  0  0  0
    1.8469   -0.6681   -0.5764 H   0  0  0  0  0  0
    1.7749    1.0703   -0.4821 H   0  0  0  0  0  0
    1.6486   -0.8175    1.9135 H   0  0  0  0  0  0
    3.8793   -0.8711    0.8726 H   0  0  0  0  0  0
    3.9663    0.8748    0.8941 H   0  0  0  0  0  0
    3.8210   -0.9595    3.3359 H   0  0  0  0  0  0
    5.2109   -0.0332    2.8206 H   0  0  0  0  0  0
    3.9762    1.0985    4.7008 H   0  0  0  0  0  0
    4.0111    2.1006    3.2621 H   0  0  0  0  0  0
    1.7940    0.3837    4.1246 H   0  0  0  0  0  0
    1.8613    2.2356    1.8508 H   0  0  0  0  0  0
    0.4789    1.3137    2.4087 H   0  0  0  0  0  0
   -0.3618    2.1826   -0.4170 H   0  0  0  0  0  0
   -2.8373    2.0295   -0.4901 H   0  0  0  0  0  0
    1.8421    2.0237    4.2027 H   0  0  0  0  0  0
  1  2  1  0  0  0
  2 14  1  0  0  0
  2  3  2  0  0  0
  3  4  1  0  0  0
  3 15  1  0  0  0
  4  5  2  0  0  0
  4 16  1  0  0  0
  5  6  1  0  0  0
  5 13  1  0  0  0
  6  7  1  0  0  0
  6 17  1  0  0  0
  6 18  1  0  0  0
  7 12  1  0  0  0
  7  8  1  0  0  0
  7 19  1  0  0  0
  8  9  1  0  0  0
  8 20  1  0  0  0
  8 21  1  0  0  0
  9 10  1  0  0  0
  9 22  1  0  0  0
  9 23  1  0  0  0
 10 11  1  0  0  0
 10 24  1  0  0  0
 10 25  1  0  0  0
 11 12  1  0  0  0
 11 26  1  0  0  0
 11 31  1  0  0  0
 12 27  1  0  0  0
 12 28  1  0  0  0
 13 14  2  0  0  0
 13 29  1  0  0  0
 14 30  1  0  0  0
M  CHG  1  11   1
M  END
> <s_m_entry_id>
1129

> <s_m_entry_name>
Spot_Xplore.std.234

> <s_m_Source_Path>
/Volumes/cluster/ddu/2448959/Work/2023/01_Fragment_screening_lib/1_Library_Construction/Work/SpotX/Ph4_Hypo_JC2

> <s_m_Source_File>
SpotX.maegz

> <i_m_Source_File_Index>
263

> <s_m_job_name>
ligprep_SpotXplore

> <i_lp_mmshare_version>
52144

> <s_epik_input>
RmMxW2NIXVtjSF1jKFtjSF1bY0hdMSlbQ0gyXVtDQEhdMltDSDJdW0NIMl1bQ0gyXVtOSF1bQ0gyXTI=

> <s_epik_cmdline>
J2VwaWtfcHl0aG9uJywgJy1waHQnLCAnMS4wJywgJy1waCcsICc3LjAnLCAnLXRuJywgJzgnLCAnLW1hJywgJzIwMCcsICctaW1hZScsICc8aW5maWxlLm1hZT4nLCAnLW9tYWUnLCAnPG91dGZpbGUubWFlPic=

> <r_lp_tautomer_probability>
1

> <r_epik_Ionization_Penalty>
  0.0001

> <r_epik_Ionization_Penalty_Charging>
  0.0001

> <r_epik_Ionization_Penalty_Neutral>
  0.0000

> <r_epik_State_Penalty>
  0.0000

> <r_epik_Charging_Adjusted_Penalty>
8.0080831129805e-05

> <i_epik_Tot_Q>
1

> <i_epik_Tot_abs_Q>
1

> <i_f3d_flags>
0

> <s_lp_Force_Field>
OPLS_2005

> <r_lp_Energy>
17.184949

> <b_lp_Chiralities_Consistent>
1

> <s_lp_Variant>
mol_ID_234-1

> <s_m_subgroup_title>
ligprep_SpotXplore-out1

> <s_m_subgroupid>
ligprep_SpotXplore-out1

> <b_m_subgroup_collapsed>
0

$$$$
mol_ID_235
                    3D
 Schrodinger Suite 2020-4.
 21 22  0  0  1  0            999 V2000
   -0.0351    0.0393   -0.0172 C   0  0  0  0  0  0
    1.4969   -0.0067    0.0001 C   0  0  0  0  0  0
    1.9900   -1.3697    0.0415 N   0  0  0  0  0  0
    2.2617   -2.1009    1.1397 C   0  0  0  0  0  0
    2.7058   -3.3407    0.9527 N   0  0  0  0  0  0
    2.7257   -3.4244   -0.4289 C   0  0  0  0  0  0
    3.1042   -4.4894   -1.2775 C   0  0  0  0  0  0
    3.0437   -4.3424   -2.6790 C   0  0  0  0  0  0
    2.6023   -3.1322   -3.2527 C   0  0  0  0  0  0
    2.2177   -2.0576   -2.4276 C   0  0  0  0  0  0
    2.2827   -2.2071   -1.0296 C   0  0  0  0  0  0
   -0.3917    1.0688   -0.0501 H   0  0  0  0  0  0
   -0.4533   -0.4291    0.8743 H   0  0  0  0  0  0
   -0.4356   -0.4793   -0.8887 H   0  0  0  0  0  0
    1.9008    0.4862   -0.8848 H   0  0  0  0  0  0
    1.8812    0.5327    0.8669 H   0  0  0  0  0  0
    2.1249   -1.6994    2.1332 H   0  0  0  0  0  0
    3.4432   -5.4209   -0.8488 H   0  0  0  0  0  0
    3.3377   -5.1629   -3.3172 H   0  0  0  0  0  0
    2.5596   -3.0294   -4.3272 H   0  0  0  0  0  0
    1.8788   -1.1294   -2.8633 H   0  0  0  0  0  0
  1  2  1  0  0  0
  1 12  1  0  0  0
  1 13  1  0  0  0
  1 14  1  0  0  0
  2  3  1  0  0  0
  2 15  1  0  0  0
  2 16  1  0  0  0
  3 11  1  0  0  0
  3  4  1  0  0  0
  4  5  2  0  0  0
  4 17  1  0  0  0
  5  6  1  0  0  0
  6 11  2  0  0  0
  6  7  1  0  0  0
  7  8  2  0  0  0
  7 18  1  0  0  0
  8  9  1  0  0  0
  8 19  1  0  0  0
  9 10  2  0  0  0
  9 20  1  0  0  0
 10 11  1  0  0  0
 10 21  1  0  0  0
M  END
> <s_m_entry_id>
1130

> <s_m_entry_name>
Spot_Xplore.std.235

> <s_m_Source_Path>
/Volumes/cluster/ddu/2448959/Work/2023/01_Fragment_screening_lib/1_Library_Construction/Work/SpotX/Ph4_Hypo_JC2

> <s_m_Source_File>
SpotX.maegz

> <i_m_Source_File_Index>
264

> <s_m_job_name>
ligprep_SpotXplore

> <i_lp_mmshare_version>
52144

> <s_epik_input>
W0NIM11bQ0gyXW4oW2NIXW4xKWMoYzEyKVtjSF1bY0hdW2NIXVtjSF0y

> <s_epik_cmdline>
J2VwaWtfcHl0aG9uJywgJy1waHQnLCAnMS4wJywgJy1waCcsICc3LjAnLCAnLXRuJywgJzgnLCAnLW1hJywgJzIwMCcsICctaW1hZScsICc8aW5maWxlLm1hZT4nLCAnLW9tYWUnLCAnPG91dGZpbGUubWFlPic=

> <r_epik_Ionization_Penalty>
  0.0738

> <r_epik_Ionization_Penalty_Charging>
  0.0000

> <r_epik_Ionization_Penalty_Neutral>
  0.0738

> <r_epik_State_Penalty>
  0.0649

> <r_epik_Charging_Adjusted_Penalty>
0.06490950573984

> <i_epik_Tot_Q>
0

> <i_epik_Tot_abs_Q>
0

> <i_f3d_flags>
0

> <s_lp_Force_Field>
OPLS_2005

> <r_lp_Energy>
8.342897

> <b_lp_Chiralities_Consistent>
1

> <s_lp_Variant>
mol_ID_235-1

> <s_m_subgroup_title>
ligprep_SpotXplore-out1

> <s_m_subgroupid>
ligprep_SpotXplore-out1

> <b_m_subgroup_collapsed>
0

$$$$
mol_ID_235
                    3D
 Schrodinger Suite 2020-4.
 22 23  0  0  1  0            999 V2000
   -0.0008   -0.0117   -0.1873 C   0  0  0  0  0  0
    1.5199   -0.0425    0.0077 C   0  0  0  0  0  0
    2.0293   -1.4121    0.1338 N   0  0  0  0  0  0
    2.3343   -2.1333    1.2467 C   0  0  0  0  0  0
    2.7657   -3.3588    0.8370 N   0  3  0  0  0  0
    2.7366   -3.4211   -0.5580 C   0  0  0  0  0  0
    3.0771   -4.4483   -1.4330 C   0  0  0  0  0  0
    2.9294   -4.1814   -2.8102 C   0  0  0  0  0  0
    2.4590   -2.9344   -3.2711 C   0  0  0  0  0  0
    2.1154   -1.9005   -2.3751 C   0  0  0  0  0  0
    2.2654   -2.1725   -1.0160 C   0  0  0  0  0  0
   -0.3603    1.0145   -0.2644 H   0  0  0  0  0  0
   -0.5144   -0.4812    0.6521 H   0  0  0  0  0  0
   -0.2969   -0.5354   -1.0966 H   0  0  0  0  0  0
    2.0337    0.4512   -0.8180 H   0  0  0  0  0  0
    1.7924    0.4967    0.9158 H   0  0  0  0  0  0
    2.2478   -1.7955    2.2695 H   0  0  0  0  0  0
    3.4367   -5.4049   -1.0832 H   0  0  0  0  0  0
    3.1819   -4.9488   -3.5276 H   0  0  0  0  0  0
    2.3587   -2.7670   -4.3336 H   0  0  0  0  0  0
    1.7536   -0.9491   -2.7363 H   0  0  0  0  0  0
    3.0568   -4.0967    1.4656 H   0  0  0  0  0  0
  1  2  1  0  0  0
  1 12  1  0  0  0
  1 13  1  0  0  0
  1 14  1  0  0  0
  2  3  1  0  0  0
  2 15  1  0  0  0
  2 16  1  0  0  0
  3 11  1  0  0  0
  3  4  1  0  0  0
  4  5  2  0  0  0
  4 17  1  0  0  0
  5  6  1  0  0  0
  5 22  1  0  0  0
  6 11  2  0  0  0
  6  7  1  0  0  0
  7  8  2  0  0  0
  7 18  1  0  0  0
  8  9  1  0  0  0
  8 19  1  0  0  0
  9 10  2  0  0  0
  9 20  1  0  0  0
 10 11  1  0  0  0
 10 21  1  0  0  0
M  CHG  1   5   1
M  END
> <s_m_entry_id>
1131

> <s_m_entry_name>
Spot_Xplore.std.235

> <s_m_Source_Path>
/Volumes/cluster/ddu/2448959/Work/2023/01_Fragment_screening_lib/1_Library_Construction/Work/SpotX/Ph4_Hypo_JC2

> <s_m_Source_File>
SpotX.maegz

> <i_m_Source_File_Index>
265

> <s_m_job_name>
ligprep_SpotXplore

> <i_lp_mmshare_version>
52144

> <s_epik_input>
W0NIM11bQ0gyXW4oW2NIXW4xKWMoYzEyKVtjSF1bY0hdW2NIXVtjSF0y

> <s_epik_cmdline>
J2VwaWtfcHl0aG9uJywgJy1waHQnLCAnMS4wJywgJy1waCcsICc3LjAnLCAnLXRuJywgJzgnLCAnLW1hJywgJzIwMCcsICctaW1hZScsICc8aW5maWxlLm1hZT4nLCAnLW9tYWUnLCAnPG91dGZpbGUubWFlPic=

> <r_epik_Ionization_Penalty>
  1.2709

> <r_epik_Ionization_Penalty_Charging>
  1.2709

> <r_epik_Ionization_Penalty_Neutral>
  0.0000

> <r_epik_State_Penalty>
  1.3423

> <r_epik_Charging_Adjusted_Penalty>
2.61323701557511

> <i_epik_Tot_Q>
1

> <i_epik_Tot_abs_Q>
1

> <i_f3d_flags>
0

> <s_lp_Force_Field>
OPLS_2005

> <r_lp_Energy>
13.377709

> <b_lp_Chiralities_Consistent>
1

> <s_lp_Variant>
mol_ID_235-2

> <s_m_subgroup_title>
ligprep_SpotXplore-out1

> <s_m_subgroupid>
ligprep_SpotXplore-out1

> <b_m_subgroup_collapsed>
0

$$$$
mol_ID_236
                    3D
 Schrodinger Suite 2020-4.
 28 29  0  0  1  0            999 V2000
   -0.5602   -0.7794    0.6316 O   0  0  0  0  0  0
    0.0994    0.2014    0.2873 C   0  0  0  0  0  0
    1.5897    0.0526    0.1756 C   0  0  0  0  0  0
    2.2668    0.3080   -1.0381 C   0  0  0  0  0  0
    3.6618    0.1144   -1.0848 C   0  0  0  0  0  0
    4.3867   -0.3142   -0.0300 N   0  0  0  0  0  0
    3.7321   -0.5784    1.1208 C   0  0  0  0  0  0
    2.3405   -0.4188    1.2734 C   0  0  0  0  0  0
   -0.4617    1.4038    0.0003 N   0  0  0  0  0  0
   -1.9163    1.5878   -0.0882 C   0  0  0  0  0  0
   -2.2808    2.0973   -1.4956 C   0  0  0  0  0  0
   -1.5244    3.3252   -1.8312 N   0  3  0  0  0  0
   -0.0630    3.2010   -1.6291 C   0  0  0  0  0  0
    0.2533    2.6696   -0.2184 C   0  0  0  0  0  0
    1.7351    0.6383   -1.9179 H   0  0  0  0  0  0
    4.2091    0.3046   -1.9962 H   0  0  0  0  0  0
    4.3348   -0.9304    1.9448 H   0  0  0  0  0  0
    1.8653   -0.6516    2.2155 H   0  0  0  0  0  0
   -2.4759    0.6743    0.1175 H   0  0  0  0  0  0
   -2.2320    2.3086    0.6676 H   0  0  0  0  0  0
   -2.0574    1.3311   -2.2392 H   0  0  0  0  0  0
   -3.3489    2.3051   -1.5627 H   0  0  0  0  0  0
   -1.7082    3.5777   -2.7920 H   0  0  0  0  0  0
    0.3420    2.5291   -2.3865 H   0  0  0  0  0  0
    0.4031    4.1742   -1.7844 H   0  0  0  0  0  0
   -0.0835    3.3906    0.5280 H   0  0  0  0  0  0
    1.3304    2.5991   -0.0750 H   0  0  0  0  0  0
   -1.8583    4.0676   -1.2331 H   0  0  0  0  0  0
  1  2  2  0  0  0
  2  3  1  0  0  0
  2  9  1  0  0  0
  3  8  1  0  0  0
  3  4  2  0  0  0
  4  5  1  0  0  0
  4 15  1  0  0  0
  5  6  2  0  0  0
  5 16  1  0  0  0
  6  7  1  0  0  0
  7  8  2  0  0  0
  7 17  1  0  0  0
  8 18  1  0  0  0
  9 14  1  0  0  0
  9 10  1  0  0  0
 10 11  1  0  0  0
 10 19  1  0  0  0
 10 20  1  0  0  0
 11 12  1  0  0  0
 11 21  1  0  0  0
 11 22  1  0  0  0
 12 13  1  0  0  0
 12 23  1  0  0  0
 12 28  1  0  0  0
 13 14  1  0  0  0
 13 24  1  0  0  0
 13 25  1  0  0  0
 14 26  1  0  0  0
 14 27  1  0  0  0
M  CHG  1  12   1
M  END
> <s_m_entry_id>
1132

> <s_m_entry_name>
Spot_Xplore.std.236

> <s_m_Source_Path>
/Volumes/cluster/ddu/2448959/Work/2023/01_Fragment_screening_lib/1_Library_Construction/Work/SpotX/Ph4_Hypo_JC2

> <s_m_Source_File>
SpotX.maegz

> <i_m_Source_File_Index>
266

> <s_m_job_name>
ligprep_SpotXplore

> <i_lp_mmshare_version>
52144

> <s_epik_input>
W0NIMl0xW0NIMl1bTkhdW0NIMl1bQ0gyXU4xQyg9TyljMltjSF1bY0hdbltjSF1bY0hdMg==

> <s_epik_cmdline>
J2VwaWtfcHl0aG9uJywgJy1waHQnLCAnMS4wJywgJy1waCcsICc3LjAnLCAnLXRuJywgJzgnLCAnLW1hJywgJzIwMCcsICctaW1hZScsICc8aW5maWxlLm1hZT4nLCAnLW9tYWUnLCAnPG91dGZpbGUubWFlPic=

> <r_epik_Ionization_Penalty>
  0.1008

> <r_epik_Ionization_Penalty_Charging>
  0.1008

> <r_epik_Ionization_Penalty_Neutral>
  0.0000

> <r_epik_State_Penalty>
  0.0908

> <r_epik_Charging_Adjusted_Penalty>
0.191584448808095

> <i_epik_Tot_Q>
1

> <i_epik_Tot_abs_Q>
1

> <i_f3d_flags>
0

> <s_lp_Force_Field>
OPLS_2005

> <r_lp_Energy>
44.761668

> <b_lp_Chiralities_Consistent>
1

> <s_lp_Variant>
mol_ID_236-1

> <s_m_subgroup_title>
ligprep_SpotXplore-out1

> <s_m_subgroupid>
ligprep_SpotXplore-out1

> <b_m_subgroup_collapsed>
0

$$$$
mol_ID_236
                    3D
 Schrodinger Suite 2020-4.
 27 28  0  0  1  0            999 V2000
   -0.6022   -0.9507    0.0212 O   0  0  0  0  0  0
    0.0631    0.0850    0.0121 C   0  0  0  0  0  0
    1.5567   -0.0192    0.0043 C   0  0  0  0  0  0
    2.2673   -0.0631   -1.2133 C   0  0  0  0  0  0
    3.6723   -0.1576   -1.1650 C   0  0  0  0  0  0
    4.3733   -0.2075   -0.0117 N   0  0  0  0  0  0
    3.6846   -0.1673    1.1493 C   0  0  0  0  0  0
    2.2801   -0.0743    1.2136 C   0  0  0  0  0  0
   -0.4810    1.3259    0.0025 N   0  0  0  0  0  0
   -1.9260    1.5614   -0.0743 C   0  0  0  0  0  0
   -2.2444    2.2623   -1.4099 C   0  0  0  0  0  0
   -1.5111    3.5223   -1.5075 N   0  0  0  0  0  0
   -0.0727    3.2922   -1.3952 C   0  0  0  0  0  0
    0.2516    2.5974   -0.0583 C   0  0  0  0  0  0
    1.7516   -0.0241   -2.1618 H   0  0  0  0  0  0
    4.2487   -0.1930   -2.0776 H   0  0  0  0  0  0
    4.2707   -0.2091    2.0553 H   0  0  0  0  0  0
    1.7747   -0.0436    2.1680 H   0  0  0  0  0  0
   -2.5071    0.6417    0.0024 H   0  0  0  0  0  0
   -2.2381    2.1844    0.7654 H   0  0  0  0  0  0
   -1.9830    1.6197   -2.2517 H   0  0  0  0  0  0
   -3.3124    2.4682   -1.4825 H   0  0  0  0  0  0
   -1.7176    3.9694   -2.3896 H   0  0  0  0  0  0
    0.2694    2.6859   -2.2351 H   0  0  0  0  0  0
    0.4443    4.2499   -1.4582 H   0  0  0  0  0  0
   -0.0555    3.2277    0.7780 H   0  0  0  0  0  0
    1.3307    2.4885    0.0407 H   0  0  0  0  0  0
  1  2  2  0  0  0
  2  3  1  0  0  0
  2  9  1  0  0  0
  3  8  1  0  0  0
  3  4  2  0  0  0
  4  5  1  0  0  0
  4 15  1  0  0  0
  5  6  2  0  0  0
  5 16  1  0  0  0
  6  7  1  0  0  0
  7  8  2  0  0  0
  7 17  1  0  0  0
  8 18  1  0  0  0
  9 14  1  0  0  0
  9 10  1  0  0  0
 10 11  1  0  0  0
 10 19  1  0  0  0
 10 20  1  0  0  0
 11 12  1  0  0  0
 11 21  1  0  0  0
 11 22  1  0  0  0
 12 13  1  0  0  0
 12 23  1  0  0  0
 13 14  1  0  0  0
 13 24  1  0  0  0
 13 25  1  0  0  0
 14 26  1  0  0  0
 14 27  1  0  0  0
M  END
> <s_m_entry_id>
1133

> <s_m_entry_name>
Spot_Xplore.std.236

> <s_m_Source_Path>
/Volumes/cluster/ddu/2448959/Work/2023/01_Fragment_screening_lib/1_Library_Construction/Work/SpotX/Ph4_Hypo_JC2

> <s_m_Source_File>
SpotX.maegz

> <i_m_Source_File_Index>
267

> <s_m_job_name>
ligprep_SpotXplore

> <i_lp_mmshare_version>
52144

> <s_epik_input>
W0NIMl0xW0NIMl1bTkhdW0NIMl1bQ0gyXU4xQyg9TyljMltjSF1bY0hdbltjSF1bY0hdMg==

> <s_epik_cmdline>
J2VwaWtfcHl0aG9uJywgJy1waHQnLCAnMS4wJywgJy1waCcsICc3LjAnLCAnLXRuJywgJzgnLCAnLW1hJywgJzIwMCcsICctaW1hZScsICc8aW5maWxlLm1hZT4nLCAnLW9tYWUnLCAnPG91dGZpbGUubWFlPic=

> <r_epik_Ionization_Penalty>
  1.0993

> <r_epik_Ionization_Penalty_Charging>
  0.0000

> <r_epik_Ionization_Penalty_Neutral>
  1.0993

> <r_epik_State_Penalty>
  1.1561

> <r_epik_Charging_Adjusted_Penalty>
1.15614172918246

> <i_epik_Tot_Q>
0

> <i_epik_Tot_abs_Q>
0

> <i_f3d_flags>
0

> <s_lp_Force_Field>
OPLS_2005

> <r_lp_Energy>
38.915735

> <b_lp_Chiralities_Consistent>
1

> <s_lp_Variant>
mol_ID_236-2

> <s_m_subgroup_title>
ligprep_SpotXplore-out1

> <s_m_subgroupid>
ligprep_SpotXplore-out1

> <b_m_subgroup_collapsed>
0

$$$$
mol_ID_237
                    3D
 Schrodinger Suite 2020-4.
 32 33  0  0  1  0            999 V2000
   -0.6324    1.4430   -0.0110 N   0  3  0  0  0  0
   -0.0899    0.0721   -0.0603 C   0  0  0  0  0  0
    1.4645    0.0396   -0.0260 C   0  0  0  0  0  0
    1.9446    0.7596    1.2540 C   0  0  0  0  0  0
    1.6536    0.2003    2.5226 C   0  0  0  0  0  0
    2.0672    0.8350    3.7091 C   0  0  0  0  0  0
    2.7764    2.0473    3.6492 C   0  0  0  0  0  0
    3.0658    2.6236    2.4000 C   0  0  0  0  0  0
    2.6514    1.9887    1.2131 C   0  0  0  0  0  0
    1.9641   -1.4309    0.0015 C   0  0  0  0  0  0
    1.7372   -2.1821   -1.3236 C   0  0  0  0  0  0
    2.3534   -1.4838   -2.3954 O   0  0  0  0  0  0
    1.8148   -0.1836   -2.5821 C   0  0  0  0  0  0
    2.0571    0.6667   -1.3218 C   0  0  0  0  0  0
   -1.6416    1.4088   -0.0309 H   0  0  0  0  0  0
   -0.2970    1.9669   -0.8066 H   0  0  0  0  0  0
   -0.5012   -0.4768    0.7874 H   0  0  0  0  0  0
   -0.4873   -0.4128   -0.9503 H   0  0  0  0  0  0
    1.1030   -0.7248    2.6024 H   0  0  0  0  0  0
    1.8384    0.3909    4.6668 H   0  0  0  0  0  0
    3.0948    2.5351    4.5589 H   0  0  0  0  0  0
    3.6070    3.5572    2.3508 H   0  0  0  0  0  0
    2.8911    2.4750    0.2807 H   0  0  0  0  0  0
    3.0347   -1.4393    0.2127 H   0  0  0  0  0  0
    1.4935   -1.9941    0.8070 H   0  0  0  0  0  0
    2.1764   -3.1781   -1.2628 H   0  0  0  0  0  0
    0.6754   -2.3241   -1.5271 H   0  0  0  0  0  0
    2.3109    0.2750   -3.4377 H   0  0  0  0  0  0
    0.7560   -0.2431   -2.8348 H   0  0  0  0  0  0
    1.6719    1.6735   -1.4854 H   0  0  0  0  0  0
    3.1385    0.7650   -1.2133 H   0  0  0  0  0  0
   -0.3266    1.8931    0.8402 H   0  0  0  0  0  0
  1  2  1  0  0  0
  1 15  1  0  0  0
  1 16  1  0  0  0
  1 32  1  0  0  0
  2  3  1  0  0  0
  2 17  1  0  0  0
  2 18  1  0  0  0
  3 14  1  0  0  0
  3  4  1  0  0  0
  3 10  1  0  0  0
  4  9  1  0  0  0
  4  5  2  0  0  0
  5  6  1  0  0  0
  5 19  1  0  0  0
  6  7  2  0  0  0
  6 20  1  0  0  0
  7  8  1  0  0  0
  7 21  1  0  0  0
  8  9  2  0  0  0
  8 22  1  0  0  0
  9 23  1  0  0  0
 10 11  1  0  0  0
 10 24  1  0  0  0
 10 25  1  0  0  0
 11 12  1  0  0  0
 11 26  1  0  0  0
 11 27  1  0  0  0
 12 13  1  0  0  0
 13 14  1  0  0  0
 13 28  1  0  0  0
 13 29  1  0  0  0
 14 30  1  0  0  0
 14 31  1  0  0  0
M  CHG  1   1   1
M  END
> <s_m_entry_id>
1134

> <s_m_entry_name>
Spot_Xplore.std.237

> <s_m_Source_Path>
/Volumes/cluster/ddu/2448959/Work/2023/01_Fragment_screening_lib/1_Library_Construction/Work/SpotX/Ph4_Hypo_JC2

> <s_m_Source_File>
SpotX.maegz

> <i_m_Source_File_Index>
268

> <s_m_job_name>
ligprep_SpotXplore

> <i_lp_mmshare_version>
52144

> <s_epik_input>
W0NIMl0xW0NIMl1PW0NIMl1bQ0gyXUMxKFtDSDJdW05IMl0pYzJbY0hdW2NIXVtjSF1bY0hdW2NIXTI=

> <s_epik_cmdline>
J2VwaWtfcHl0aG9uJywgJy1waHQnLCAnMS4wJywgJy1waCcsICc3LjAnLCAnLXRuJywgJzgnLCAnLW1hJywgJzIwMCcsICctaW1hZScsICc8aW5maWxlLm1hZT4nLCAnLW9tYWUnLCAnPG91dGZpbGUubWFlPic=

> <r_lp_tautomer_probability>
1

> <r_epik_Ionization_Penalty>
  0.0017

> <r_epik_Ionization_Penalty_Charging>
  0.0017

> <r_epik_Ionization_Penalty_Neutral>
  0.0000

> <r_epik_State_Penalty>
  0.0000

> <r_epik_Charging_Adjusted_Penalty>
0.00165444478699408

> <i_epik_Tot_Q>
1

> <i_epik_Tot_abs_Q>
1

> <i_f3d_flags>
0

> <s_lp_Force_Field>
OPLS_2005

> <r_lp_Energy>
22.367095

> <b_lp_Chiralities_Consistent>
1

> <s_lp_Variant>
mol_ID_237-1

> <s_m_subgroup_title>
ligprep_SpotXplore-out1

> <s_m_subgroupid>
ligprep_SpotXplore-out1

> <b_m_subgroup_collapsed>
0

$$$$
mol_ID_238
                    3D
 Schrodinger Suite 2020-4.
 20 21  0  0  1  0            999 V2000
   -4.1015   -0.0000   -0.0001 O   0  5  0  0  0  0
   -2.7367   -0.0000   -0.0000 C   0  0  0  0  0  0
   -1.9940   -1.1333    0.3813 C   0  0  0  0  0  0
   -0.6439   -1.1256    0.3787 N   0  0  0  0  0  0
   -0.0204    0.0000    0.0001 C   0  0  0  0  0  0
    1.4640    0.0000    0.0000 C   0  0  0  0  0  0
    2.1917    1.1534   -0.3887 C   0  0  0  0  0  0
    3.6002    1.1529   -0.3883 C   0  0  0  0  0  0
    4.3059    0.0000   -0.0001 C   0  0  0  0  0  0
    3.6001   -1.1529    0.3883 C   0  0  0  0  0  0
    2.1917   -1.1533    0.3888 C   0  0  0  0  0  0
   -0.6438    1.1256   -0.3786 N   0  0  0  0  0  0
   -1.9940    1.1333   -0.3813 C   0  0  0  0  0  0
   -2.4788   -2.0482    0.6891 H   0  0  0  0  0  0
    1.6832    2.0561   -0.6930 H   0  0  0  0  0  0
    4.1389    2.0401   -0.6868 H   0  0  0  0  0  0
    5.3859   -0.0000   -0.0000 H   0  0  0  0  0  0
    4.1389   -2.0402    0.6868 H   0  0  0  0  0  0
    1.6832   -2.0561    0.6931 H   0  0  0  0  0  0
   -2.4787    2.0482   -0.6892 H   0  0  0  0  0  0
  1  2  1  0  0  0
  2  3  1  0  0  0
  2 13  2  0  0  0
  3  4  2  0  0  0
  3 14  1  0  0  0
  4  5  1  0  0  0
  5  6  1  0  0  0
  5 12  2  0  0  0
  6 11  1  0  0  0
  6  7  2  0  0  0
  7  8  1  0  0  0
  7 15  1  0  0  0
  8  9  2  0  0  0
  8 16  1  0  0  0
  9 10  1  0  0  0
  9 17  1  0  0  0
 10 11  2  0  0  0
 10 18  1  0  0  0
 11 19  1  0  0  0
 12 13  1  0  0  0
 13 20  1  0  0  0
M  CHG  1   1  -1
M  END
> <s_m_entry_id>
1135

> <s_m_entry_name>
Spot_Xplore.std.238

> <s_m_Source_Path>
/Volumes/cluster/ddu/2448959/Work/2023/01_Fragment_screening_lib/1_Library_Construction/Work/SpotX/Ph4_Hypo_JC2

> <s_m_Source_File>
SpotX.maegz

> <i_m_Source_File_Index>
269

> <s_m_job_name>
ligprep_SpotXplore

> <i_lp_mmshare_version>
52144

> <s_epik_input>
W09IXWMxW2NIXW5jKG5bY0hdMSktYzJbY0hdW2NIXVtjSF1bY0hdW2NIXTI=

> <s_epik_cmdline>
J2VwaWtfcHl0aG9uJywgJy1waHQnLCAnMS4wJywgJy1waCcsICc3LjAnLCAnLXRuJywgJzgnLCAnLW1hJywgJzIwMCcsICctaW1hZScsICc8aW5maWxlLm1hZT4nLCAnLW9tYWUnLCAnPG91dGZpbGUubWFlPic=

> <r_lp_tautomer_probability>
1

> <r_epik_Ionization_Penalty>
  1.2668

> <r_epik_Ionization_Penalty_Charging>
  1.2668

> <r_epik_Ionization_Penalty_Neutral>
  0.0000

> <r_epik_State_Penalty>
  0.2192

> <r_epik_Charging_Adjusted_Penalty>
1.48600445660281

> <i_epik_Tot_Q>
-1

> <i_epik_Tot_abs_Q>
1

> <i_f3d_flags>
0

> <s_lp_Force_Field>
OPLS_2005

> <r_lp_Energy>
6.676534

> <b_lp_Chiralities_Consistent>
1

> <s_lp_Variant>
mol_ID_238-1

> <s_m_subgroup_title>
ligprep_SpotXplore-out1

> <s_m_subgroupid>
ligprep_SpotXplore-out1

> <b_m_subgroup_collapsed>
0

$$$$
mol_ID_238
                    3D
 Schrodinger Suite 2020-4.
 21 22  0  0  1  0            999 V2000
   -0.0155    0.0149   -0.0521 O   0  0  0  0  0  0
    1.3492    0.0117   -0.0396 C   0  0  0  0  0  0
    2.0926   -1.1275   -0.4018 C   0  0  0  0  0  0
    3.4428   -1.1228   -0.3871 N   0  0  0  0  0  0
    4.0676    0.0048   -0.0157 C   0  0  0  0  0  0
    5.5517    0.0016   -0.0050 C   0  0  0  0  0  0
    6.2789    1.1542    0.3868 C   0  0  0  0  0  0
    7.6873    1.1506    0.3971 C   0  0  0  0  0  0
    8.3932   -0.0041    0.0150 C   0  0  0  0  0  0
    7.6878   -1.1558   -0.3771 C   0  0  0  0  0  0
    6.2794   -1.1542   -0.3865 C   0  0  0  0  0  0
    3.4422    1.1355    0.3455 N   0  0  0  0  0  0
    2.0922    1.1467    0.3360 C   0  0  0  0  0  0
    1.6071   -2.0440   -0.7035 H   0  0  0  0  0  0
    5.7710    2.0592    0.6854 H   0  0  0  0  0  0
    8.2263    2.0365    0.6990 H   0  0  0  0  0  0
    9.4731   -0.0062    0.0219 H   0  0  0  0  0  0
    8.2274   -2.0437   -0.6720 H   0  0  0  0  0  0
    5.7722   -2.0571   -0.6930 H   0  0  0  0  0  0
    1.6060    2.0654    0.6291 H   0  0  0  0  0  0
   -0.3879    0.8407    0.2176 H   0  0  0  0  0  0
  1  2  1  0  0  0
  1 21  1  0  0  0
  2  3  1  0  0  0
  2 13  2  0  0  0
  3  4  2  0  0  0
  3 14  1  0  0  0
  4  5  1  0  0  0
  5  6  1  0  0  0
  5 12  2  0  0  0
  6 11  1  0  0  0
  6  7  2  0  0  0
  7  8  1  0  0  0
  7 15  1  0  0  0
  8  9  2  0  0  0
  8 16  1  0  0  0
  9 10  1  0  0  0
  9 17  1  0  0  0
 10 11  2  0  0  0
 10 18  1  0  0  0
 11 19  1  0  0  0
 12 13  1  0  0  0
 13 20  1  0  0  0
M  END
> <s_m_entry_id>
1136

> <s_m_entry_name>
Spot_Xplore.std.238

> <s_m_Source_Path>
/Volumes/cluster/ddu/2448959/Work/2023/01_Fragment_screening_lib/1_Library_Construction/Work/SpotX/Ph4_Hypo_JC2

> <s_m_Source_File>
SpotX.maegz

> <i_m_Source_File_Index>
270

> <s_m_job_name>
ligprep_SpotXplore

> <i_lp_mmshare_version>
52144

> <s_epik_input>
W09IXWMxW2NIXW5jKG5bY0hdMSktYzJbY0hdW2NIXVtjSF1bY0hdW2NIXTI=

> <s_epik_cmdline>
J2VwaWtfcHl0aG9uJywgJy1waHQnLCAnMS4wJywgJy1waCcsICc3LjAnLCAnLXRuJywgJzgnLCAnLW1hJywgJzIwMCcsICctaW1hZScsICc8aW5maWxlLm1hZT4nLCAnLW9tYWUnLCAnPG91dGZpbGUubWFlPic=

> <r_lp_tautomer_probability>
0.2552

> <r_epik_Ionization_Penalty>
  0.0743

> <r_epik_Ionization_Penalty_Charging>
  0.0000

> <r_epik_Ionization_Penalty_Neutral>
  0.0743

> <r_epik_State_Penalty>
  0.6954

> <r_epik_Charging_Adjusted_Penalty>
0.695440936076805

> <i_epik_Tot_Q>
0

> <i_epik_Tot_abs_Q>
0

> <i_f3d_flags>
0

> <s_lp_Force_Field>
OPLS_2005

> <r_lp_Energy>
7.876985

> <b_lp_Chiralities_Consistent>
1

> <s_lp_Variant>
mol_ID_238-2

> <s_m_subgroup_title>
ligprep_SpotXplore-out1

> <s_m_subgroupid>
ligprep_SpotXplore-out1

> <b_m_subgroup_collapsed>
0

$$$$
mol_ID_239
                    3D
 Schrodinger Suite 2020-4.
 15 15  0  0  1  0            999 V2000
    4.4928   -1.5759    2.4930 F   0  0  0  0  0  0
    3.7833   -0.5075    2.1246 C   0  0  0  0  0  0
    4.0654    0.4696    2.9850 F   0  0  0  0  0  0
    4.2515   -0.0433    0.7312 C   0  0  0  0  0  0
    3.8768   -1.0149   -0.2951 N   0  0  0  0  0  0
    2.4404   -1.2869   -0.2701 C   0  0  0  0  0  0
    1.9910   -1.7383    1.1336 C   0  0  0  0  0  0
    0.6651   -1.8653    1.1051 F   0  0  0  0  0  0
    2.4983   -2.9455    1.3904 F   0  0  0  0  0  0
    2.3780   -0.7512    2.0883 O   0  0  0  0  0  0
    3.8024    0.9235    0.5005 H   0  0  0  0  0  0
    5.3314    0.1076    0.7282 H   0  0  0  0  0  0
    4.1397   -0.6617   -1.2094 H   0  0  0  0  0  0
    1.8931   -0.3875   -0.5550 H   0  0  0  0  0  0
    2.1903   -2.0494   -1.0084 H   0  0  0  0  0  0
  1  2  1  0  0  0
  2 10  1  0  0  0
  2  3  1  0  0  0
  2  4  1  0  0  0
  4  5  1  0  0  0
  4 11  1  0  0  0
  4 12  1  0  0  0
  5  6  1  0  0  0
  5 13  1  0  0  0
  6  7  1  0  0  0
  6 14  1  0  0  0
  6 15  1  0  0  0
  7  8  1  0  0  0
  7  9  1  0  0  0
  7 10  1  0  0  0
M  END
> <s_m_entry_id>
1137

> <s_m_entry_name>
Spot_Xplore.std.239

> <s_m_Source_Path>
/Volumes/cluster/ddu/2448959/Work/2023/01_Fragment_screening_lib/1_Library_Construction/Work/SpotX/Ph4_Hypo_JC2

> <s_m_Source_File>
SpotX.maegz

> <i_m_Source_File_Index>
271

> <s_m_job_name>
ligprep_SpotXplore

> <i_lp_mmshare_version>
52144

> <s_epik_input>
RkMxKEYpW0NIMl1bTkhdW0NIMl1DKEYpKEYpTzE=

> <s_epik_cmdline>
J2VwaWtfcHl0aG9uJywgJy1waHQnLCAnMS4wJywgJy1waCcsICc3LjAnLCAnLXRuJywgJzgnLCAnLW1hJywgJzIwMCcsICctaW1hZScsICc8aW5maWxlLm1hZT4nLCAnLW9tYWUnLCAnPG91dGZpbGUubWFlPic=

> <r_lp_tautomer_probability>
1

> <r_epik_Ionization_Penalty>
  0.0000

> <r_epik_Ionization_Penalty_Charging>
  0.0000

> <r_epik_Ionization_Penalty_Neutral>
  0.0000

> <r_epik_State_Penalty>
  0.0000

> <r_epik_Charging_Adjusted_Penalty>
0

> <i_epik_Tot_Q>
0

> <i_epik_Tot_abs_Q>
0

> <i_f3d_flags>
0

> <s_lp_Force_Field>
OPLS_2005

> <r_lp_Energy>
14.275949

> <b_lp_Chiralities_Consistent>
1

> <s_lp_Variant>
mol_ID_239-1

> <s_m_subgroup_title>
ligprep_SpotXplore-out1

> <s_m_subgroupid>
ligprep_SpotXplore-out1

> <b_m_subgroup_collapsed>
0

$$$$
mol_ID_240
                    3D
 Schrodinger Suite 2020-4.
 32 34  0  0  1  0            999 V2000
   -4.1332    3.7828   -0.0000 F   0  0  0  0  0  0
   -3.0939    2.9151   -0.0000 C   0  0  0  0  0  0
   -1.7712    3.3974    0.0000 C   0  0  0  0  0  0
   -0.6854    2.4979    0.0000 C   0  0  0  0  0  0
   -0.8921    1.0970    0.0000 C   0  0  0  0  0  0
   -0.0277   -0.0561    0.0000 C   0  0  0  0  0  0
    1.4755   -0.0648   -0.0000 C   0  0  0  0  0  0
    2.0473   -0.7453    1.2587 C   0  0  0  0  0  0
    3.5853   -0.7580    1.2328 C   0  0  0  0  0  0
    4.0836   -1.4057    0.0001 N   0  3  0  0  0  0
    3.5853   -0.7579   -1.2329 C   0  0  0  0  0  0
    2.0473   -0.7453   -1.2587 C   0  0  0  0  0  0
   -0.8516   -1.1548   -0.0000 C   0  0  0  0  0  0
   -2.1699   -0.7374   -0.0000 N   0  0  0  0  0  0
   -2.2435    0.6402   -0.0000 C   0  0  0  0  0  0
   -3.3335    1.5292   -0.0000 C   0  0  0  0  0  0
   -1.5882    4.4620    0.0000 H   0  0  0  0  0  0
    0.3217    2.8876    0.0000 H   0  0  0  0  0  0
    1.8275    0.9678    0.0000 H   0  0  0  0  0  0
    1.6990   -0.2293    2.1542 H   0  0  0  0  0  0
    1.6798   -1.7702    1.3295 H   0  0  0  0  0  0
    3.9748    0.2596    1.2878 H   0  0  0  0  0  0
    3.9738   -1.2948    2.0985 H   0  0  0  0  0  0
    5.0933   -1.3794    0.0000 H   0  0  0  0  0  0
    3.9748    0.2596   -1.2878 H   0  0  0  0  0  0
    3.9738   -1.2948   -2.0985 H   0  0  0  0  0  0
    1.6798   -1.7702   -1.3295 H   0  0  0  0  0  0
    1.6990   -0.2293   -2.1542 H   0  0  0  0  0  0
   -0.6061   -2.2067   -0.0000 H   0  0  0  0  0  0
   -2.9530   -1.3755   -0.0000 H   0  0  0  0  0  0
   -4.3454    1.1522   -0.0000 H   0  0  0  0  0  0
    3.7827   -2.3700    0.0000 H   0  0  0  0  0  0
  1  2  1  0  0  0
  2 16  1  0  0  0
  2  3  2  0  0  0
  3  4  1  0  0  0
  3 17  1  0  0  0
  4  5  2  0  0  0
  4 18  1  0  0  0
  5 15  1  0  0  0
  5  6  1  0  0  0
  6  7  1  0  0  0
  6 13  2  0  0  0
  7 12  1  0  0  0
  7  8  1  0  0  0
  7 19  1  0  0  0
  8  9  1  0  0  0
  8 20  1  0  0  0
  8 21  1  0  0  0
  9 10  1  0  0  0
  9 22  1  0  0  0
  9 23  1  0  0  0
 10 11  1  0  0  0
 10 24  1  0  0  0
 10 32  1  0  0  0
 11 12  1  0  0  0
 11 25  1  0  0  0
 11 26  1  0  0  0
 12 27  1  0  0  0
 12 28  1  0  0  0
 13 14  1  0  0  0
 13 29  1  0  0  0
 14 15  1  0  0  0
 14 30  1  0  0  0
 15 16  2  0  0  0
 16 31  1  0  0  0
M  CHG  1  10   1
M  END
> <s_m_entry_id>
1138

> <s_m_entry_name>
Spot_Xplore.std.240

> <s_m_Source_Path>
/Volumes/cluster/ddu/2448959/Work/2023/01_Fragment_screening_lib/1_Library_Construction/Work/SpotX/Ph4_Hypo_JC2

> <s_m_Source_File>
SpotX.maegz

> <i_m_Source_File_Index>
272

> <s_m_job_name>
ligprep_SpotXplore

> <i_lp_mmshare_version>
52144

> <s_epik_input>
W2NIXTFbY0hdYyhGKVtjSF1jKGMxMilbbkhdW2NIXWMyW0NIXTNbQ0gyXVtDSDJdW05IXVtDSDJdW0NIMl0z

> <s_epik_cmdline>
J2VwaWtfcHl0aG9uJywgJy1waHQnLCAnMS4wJywgJy1waCcsICc3LjAnLCAnLXRuJywgJzgnLCAnLW1hJywgJzIwMCcsICctaW1hZScsICc8aW5maWxlLm1hZT4nLCAnLW9tYWUnLCAnPG91dGZpbGUubWFlPic=

> <r_lp_tautomer_probability>
1

> <r_epik_Ionization_Penalty>
  0.0006

> <r_epik_Ionization_Penalty_Charging>
  0.0006

> <r_epik_Ionization_Penalty_Neutral>
  0.0000

> <r_epik_State_Penalty>
  0.0000

> <r_epik_Charging_Adjusted_Penalty>
0.000597526425910488

> <i_epik_Tot_Q>
1

> <i_epik_Tot_abs_Q>
1

> <i_f3d_flags>
0

> <s_lp_Force_Field>
OPLS_2005

> <r_lp_Energy>
15.975421

> <b_lp_Chiralities_Consistent>
1

> <s_lp_Variant>
mol_ID_240-1

> <s_m_subgroup_title>
ligprep_SpotXplore-out1

> <s_m_subgroupid>
ligprep_SpotXplore-out1

> <b_m_subgroup_collapsed>
0

$$$$
